<?xml version='1.0' encoding='utf-8'?>
<routes><vType id="vType_car_10.67801492337127" accel="1.0" decel="5.0" sigma="0.0" length="4.5" maxSpeed="2.9661152564920195" /><vType id="vType_car_2.7095422385508354" accel="1.0" decel="5.0" sigma="0.0" length="4.5" maxSpeed="0.7526506218196765" /><vType id="vType_car_8.613994430687935" accel="1.0" decel="5.0" sigma="0.0" length="4.5" maxSpeed="2.3927762307466485" /><vType id="vType_car_15.50938078438936" accel="1.0" decel="5.0" sigma="0.0" length="4.5" maxSpeed="4.308161328997045" /><vType id="vType_car_4.384659059672803" accel="1.0" decel="5.0" sigma="0.0" length="4.5" maxSpeed="1.217960849909112" /><vType id="vType_truck_3.5015017845706566" accel="1.0" decel="5.0" sigma="0.0" length="8" maxSpeed="0.9726393846029602" /><vType id="vType_car_51.341904572165205" accel="1.0" decel="5.0" sigma="0.0" length="4.5" maxSpeed="14.261640158934778" /><vType id="vType_car_5.52425431817043" accel="1.0" decel="5.0" sigma="0.0" length="4.5" maxSpeed="1.5345150883806749" /><vType id="vType_car_52.5670045671277" accel="1.0" decel="5.0" sigma="0.0" length="4.5" maxSpeed="14.601945713091027" /><vType id="vType_car_14.447454365441349" accel="1.0" decel="5.0" sigma="0.0" length="4.5" maxSpeed="4.0131817681781525" /><vType id="vType_car_10.204297488919806" accel="1.0" decel="5.0" sigma="0.0" length="4.5" maxSpeed="2.834527080255502" /><vType id="vType_car_7.205094414603358" accel="1.0" decel="5.0" sigma="0.0" length="4.5" maxSpeed="2.001415115167599" /><vType id="vType_car_40.16905822043755" accel="1.0" decel="5.0" sigma="0.0" length="4.5" maxSpeed="11.15807172789932" /><vType id="vType_car_21.027225352863077" accel="1.0" decel="5.0" sigma="0.0" length="4.5" maxSpeed="5.840895931350855" /><vType id="vType_car_17.136649780503856" accel="1.0" decel="5.0" sigma="0.0" length="4.5" maxSpeed="4.760180494584405" /><vType id="vType_car_5.413775505102427" accel="1.0" decel="5.0" sigma="0.0" length="4.5" maxSpeed="1.5038265291951185" /><vType id="vType_car_2.119217579386731" accel="1.0" decel="5.0" sigma="0.0" length="4.5" maxSpeed="0.5886715498296474" /><vType id="vType_car_8.903722618869132" accel="1.0" decel="5.0" sigma="0.0" length="4.5" maxSpeed="2.4732562830192033" /><vType id="vType_car_1.3971077167527746" accel="1.0" decel="5.0" sigma="0.0" length="4.5" maxSpeed="0.3880854768757707" /><vType id="vType_car_8.625045286995743" accel="1.0" decel="5.0" sigma="0.0" length="4.5" maxSpeed="2.395845913054373" /><vType id="vType_car_6.5310225844601995" accel="1.0" decel="5.0" sigma="0.0" length="4.5" maxSpeed="1.814172940127833" /><vType id="vType_car_14.174414344885417" accel="1.0" decel="5.0" sigma="0.0" length="4.5" maxSpeed="3.9373373180237268" /><vType id="vType_car_2.2760154803827017" accel="1.0" decel="5.0" sigma="0.0" length="4.5" maxSpeed="0.6322265223285283" /><vType id="vType_car_2.504081931531054" accel="1.0" decel="5.0" sigma="0.0" length="4.5" maxSpeed="0.6955783143141816" /><vType id="vType_car_3.3322558976639405" accel="1.0" decel="5.0" sigma="0.0" length="4.5" maxSpeed="0.9256266382399835" /><vType id="vType_car_28.628304211001392" accel="1.0" decel="5.0" sigma="0.0" length="4.5" maxSpeed="7.952306725278165" /><vType id="vType_car_31.908726237422613" accel="1.0" decel="5.0" sigma="0.0" length="4.5" maxSpeed="8.863535065950726" /><vType id="vType_car_18.641866677180257" accel="1.0" decel="5.0" sigma="0.0" length="4.5" maxSpeed="5.178296299216738" /><vType id="vType_car_11.155080372101434" accel="1.0" decel="5.0" sigma="0.0" length="4.5" maxSpeed="3.0986334366948425" /><vType id="vType_car_3.083651952894339" accel="1.0" decel="5.0" sigma="0.0" length="4.5" maxSpeed="0.8565699869150942" /><vType id="vType_car_30.940462389700755" accel="1.0" decel="5.0" sigma="0.0" length="4.5" maxSpeed="8.594572886027988" /><vType id="vType_car_15.22511127524269" accel="1.0" decel="5.0" sigma="0.0" length="4.5" maxSpeed="4.229197576456302" /><vType id="vType_car_12.242684246696484" accel="1.0" decel="5.0" sigma="0.0" length="4.5" maxSpeed="3.4007456240823566" /><vType id="vType_car_2.6630538433018542" accel="1.0" decel="5.0" sigma="0.0" length="4.5" maxSpeed="0.7397371786949595" /><vType id="vType_car_2.878888628460263" accel="1.0" decel="5.0" sigma="0.0" length="4.5" maxSpeed="0.7996912856834063" /><vType id="vType_car_9.215734520588088" accel="1.0" decel="5.0" sigma="0.0" length="4.5" maxSpeed="2.559926255718913" /><vType id="vType_car_1.9288841966983727" accel="1.0" decel="5.0" sigma="0.0" length="4.5" maxSpeed="0.535801165749548" /><vType id="vType_car_2.5291556203155956" accel="1.0" decel="5.0" sigma="0.0" length="4.5" maxSpeed="0.7025432278654432" /><vType id="vType_car_2.688545086971574" accel="1.0" decel="5.0" sigma="0.0" length="4.5" maxSpeed="0.7468180797143261" /><vType id="vType_car_2.718192953978215" accel="1.0" decel="5.0" sigma="0.0" length="4.5" maxSpeed="0.7550535983272819" /><vType id="vType_car_7.769255415026405" accel="1.0" decel="5.0" sigma="0.0" length="4.5" maxSpeed="2.1581265041740014" /><vType id="vType_car_0.541908447710167" accel="1.0" decel="5.0" sigma="0.0" length="4.5" maxSpeed="0.15053012436393529" /><vType id="vType_car_33.48648877211432" accel="1.0" decel="5.0" sigma="0.0" length="4.5" maxSpeed="9.301802436698422" /><vType id="vType_car_3.2898755037062952" accel="1.0" decel="5.0" sigma="0.0" length="4.5" maxSpeed="0.9138543065850819" /><vType id="vType_car_3.8084589395764645" accel="1.0" decel="5.0" sigma="0.0" length="4.5" maxSpeed="1.0579052609934623" /><vType id="vType_car_2.7198570000068734" accel="1.0" decel="5.0" sigma="0.0" length="4.5" maxSpeed="0.7555158333352425" /><vType id="vType_car_1.8702260153935795" accel="1.0" decel="5.0" sigma="0.0" length="4.5" maxSpeed="0.5195072264982165" /><vType id="vType_car_5.446629084405781" accel="1.0" decel="5.0" sigma="0.0" length="4.5" maxSpeed="1.5129525234460501" /><vType id="vType_car_5.6202671359240455" accel="1.0" decel="5.0" sigma="0.0" length="4.5" maxSpeed="1.561185315534457" /><vType id="vType_car_14.299984186216431" accel="1.0" decel="5.0" sigma="0.0" length="4.5" maxSpeed="3.9722178295045643" /><vType id="vType_car_4.996585596852059" accel="1.0" decel="5.0" sigma="0.0" length="4.5" maxSpeed="1.3879404435700164" /><vType id="vType_car_2.004026360426025" accel="1.0" decel="5.0" sigma="0.0" length="4.5" maxSpeed="0.5566739890072292" /><vType id="vType_car_2.774238029522357" accel="1.0" decel="5.0" sigma="0.0" length="4.5" maxSpeed="0.7706216748673214" /><vType id="vType_car_0.38318713815813477" accel="1.0" decel="5.0" sigma="0.0" length="4.5" maxSpeed="0.106440871710593" /><vType id="vType_car_2.136733592742556" accel="1.0" decel="5.0" sigma="0.0" length="4.5" maxSpeed="0.5935371090951544" /><vType id="vType_car_3.481415781356084" accel="1.0" decel="5.0" sigma="0.0" length="4.5" maxSpeed="0.9670599392655789" /><vType id="vType_car_2.8895412116728285" accel="1.0" decel="5.0" sigma="0.0" length="4.5" maxSpeed="0.8026503365757857" /><vType id="vType_car_2.283948021804775" accel="1.0" decel="5.0" sigma="0.0" length="4.5" maxSpeed="0.6344300060568819" /><vType id="vType_car_6.000860070796934" accel="1.0" decel="5.0" sigma="0.0" length="4.5" maxSpeed="1.6669055752213704" /><vType id="vType_car_2.518946471379962" accel="1.0" decel="5.0" sigma="0.0" length="4.5" maxSpeed="0.6997073531611006" /><vType id="vType_car_4.698901471365221" accel="1.0" decel="5.0" sigma="0.0" length="4.5" maxSpeed="1.3052504087125614" /><vType id="vType_car_12.647626934165714" accel="1.0" decel="5.0" sigma="0.0" length="4.5" maxSpeed="3.5132297039349205" /><vType id="vType_car_2.896597095722587" accel="1.0" decel="5.0" sigma="0.0" length="4.5" maxSpeed="0.8046103043673852" /><vType id="vType_car_24.868107624625683" accel="1.0" decel="5.0" sigma="0.0" length="4.5" maxSpeed="6.907807673507134" /><vType id="vType_car_28.304834566865818" accel="1.0" decel="5.0" sigma="0.0" length="4.5" maxSpeed="7.8624540463516155" /><vType id="vType_car_37.67367217182085" accel="1.0" decel="5.0" sigma="0.0" length="4.5" maxSpeed="10.464908936616903" /><vType id="vType_car_20.6797357975243" accel="1.0" decel="5.0" sigma="0.0" length="4.5" maxSpeed="5.7443710548678615" /><vType id="vType_car_31.427490347752727" accel="1.0" decel="5.0" sigma="0.0" length="4.5" maxSpeed="8.729858429931312" /><vType id="vType_car_12.192257508649714" accel="1.0" decel="5.0" sigma="0.0" length="4.5" maxSpeed="3.386738196847143" /><vType id="vType_car_23.20468710951454" accel="1.0" decel="5.0" sigma="0.0" length="4.5" maxSpeed="6.445746419309595" /><vType id="vType_car_3.036036735826321" accel="1.0" decel="5.0" sigma="0.0" length="4.5" maxSpeed="0.8433435377295335" /><vType id="vType_car_80.7644587897104" accel="1.0" decel="5.0" sigma="0.0" length="4.5" maxSpeed="22.434571886030668" /><vType id="vType_car_34.858543995692315" accel="1.0" decel="5.0" sigma="0.0" length="4.5" maxSpeed="9.68292888769231" /><vType id="vType_car_6.5549243402890385" accel="1.0" decel="5.0" sigma="0.0" length="4.5" maxSpeed="1.820812316746955" /><vType id="vType_car_38.37576206223277" accel="1.0" decel="5.0" sigma="0.0" length="4.5" maxSpeed="10.65993390617577" /><vType id="vType_car_2.3400592060211762" accel="1.0" decel="5.0" sigma="0.0" length="4.5" maxSpeed="0.6500164461169934" /><vType id="vType_car_43.82038443267349" accel="1.0" decel="5.0" sigma="0.0" length="4.5" maxSpeed="12.17232900907597" /><vType id="vType_car_1.3547711192754177" accel="1.0" decel="5.0" sigma="0.0" length="4.5" maxSpeed="0.37632531090983823" /><vType id="vType_car_40.471426904510366" accel="1.0" decel="5.0" sigma="0.0" length="4.5" maxSpeed="11.242063029030657" /><vType id="vType_car_17.461610561626305" accel="1.0" decel="5.0" sigma="0.0" length="4.5" maxSpeed="4.850447378229529" /><vType id="vType_car_35.10787024662142" accel="1.0" decel="5.0" sigma="0.0" length="4.5" maxSpeed="9.75218617961706" /><vType id="vType_car_15.186093528359256" accel="1.0" decel="5.0" sigma="0.0" length="4.5" maxSpeed="4.218359313433127" /><vType id="vType_car_20.05202662635419" accel="1.0" decel="5.0" sigma="0.0" length="4.5" maxSpeed="5.570007396209498" /><vType id="vType_car_29.210760285576086" accel="1.0" decel="5.0" sigma="0.0" length="4.5" maxSpeed="8.11410007932669" /><vType id="vType_car_27.142779686695842" accel="1.0" decel="5.0" sigma="0.0" length="4.5" maxSpeed="7.539661024082179" /><vType id="vType_car_17.5339764632416" accel="1.0" decel="5.0" sigma="0.0" length="4.5" maxSpeed="4.870549017567111" /><vType id="vType_car_6.567581523112963" accel="1.0" decel="5.0" sigma="0.0" length="4.5" maxSpeed="1.824328200864712" /><vType id="vType_car_38.92370950647548" accel="1.0" decel="5.0" sigma="0.0" length="4.5" maxSpeed="10.812141529576524" /><vType id="vType_car_36.74060470951346" accel="1.0" decel="5.0" sigma="0.0" length="4.5" maxSpeed="10.205723530420405" /><vType id="vType_car_19.493511839691738" accel="1.0" decel="5.0" sigma="0.0" length="4.5" maxSpeed="5.4148643999143715" /><vType id="vType_car_5.505307396726612" accel="1.0" decel="5.0" sigma="0.0" length="4.5" maxSpeed="1.529252054646281" /><vType id="vType_car_3.824350477771751" accel="1.0" decel="5.0" sigma="0.0" length="4.5" maxSpeed="1.0623195771588196" /><vType id="vType_car_2.6091888223082136" accel="1.0" decel="5.0" sigma="0.0" length="4.5" maxSpeed="0.7247746728633927" /><vType id="vType_car_13.401277699172175" accel="1.0" decel="5.0" sigma="0.0" length="4.5" maxSpeed="3.7225771386589375" /><vType id="vType_car_54.09609469656173" accel="1.0" decel="5.0" sigma="0.0" length="4.5" maxSpeed="15.026692971267146" /><vType id="vType_car_2.855932996337425" accel="1.0" decel="5.0" sigma="0.0" length="4.5" maxSpeed="0.7933147212048403" /><vType id="vType_car_3.2117269510429236" accel="1.0" decel="5.0" sigma="0.0" length="4.5" maxSpeed="0.892146375289701" /><vType id="vType_car_11.002125992348002" accel="1.0" decel="5.0" sigma="0.0" length="4.5" maxSpeed="3.056146108985556" /><vType id="vType_car_3.79335913397117" accel="1.0" decel="5.0" sigma="0.0" length="4.5" maxSpeed="1.053710870547547" /><vType id="vType_car_3.8318713815813474" accel="1.0" decel="5.0" sigma="0.0" length="4.5" maxSpeed="1.0644087171059298" /><vType id="vType_car_8.966055261486279" accel="1.0" decel="5.0" sigma="0.0" length="4.5" maxSpeed="2.490570905968411" /><vType id="vType_truck_6.59500598202929" accel="1.0" decel="5.0" sigma="0.0" length="8" maxSpeed="1.8319461061192472" /><vType id="vType_car_21.743658044772435" accel="1.0" decel="5.0" sigma="0.0" length="4.5" maxSpeed="6.039905012436787" /><vType id="vType_truck_9.814539078770236" accel="1.0" decel="5.0" sigma="0.0" length="8" maxSpeed="2.7262608552139547" /><vType id="vType_car_23.731072176436175" accel="1.0" decel="5.0" sigma="0.0" length="4.5" maxSpeed="6.591964493454493" /><vType id="vType_car_20.96394291580956" accel="1.0" decel="5.0" sigma="0.0" length="4.5" maxSpeed="5.8233174766137665" /><vType id="vType_car_12.484695038985347" accel="1.0" decel="5.0" sigma="0.0" length="4.5" maxSpeed="3.467970844162596" /><vType id="vType_car_18.23611330912837" accel="1.0" decel="5.0" sigma="0.0" length="4.5" maxSpeed="5.065587030313436" /><vType id="vType_car_8.150693668393295" accel="1.0" decel="5.0" sigma="0.0" length="4.5" maxSpeed="2.264081574553693" /><vType id="vType_car_8.87184461170743" accel="1.0" decel="5.0" sigma="0.0" length="4.5" maxSpeed="2.4644012810298417" /><vType id="vType_car_13.369968500979162" accel="1.0" decel="5.0" sigma="0.0" length="4.5" maxSpeed="3.7138801391608784" /><vType id="vType_car_19.09477104645564" accel="1.0" decel="5.0" sigma="0.0" length="4.5" maxSpeed="5.3041030684599" /><vType id="vType_car_2.8688687181612065" accel="1.0" decel="5.0" sigma="0.0" length="4.5" maxSpeed="0.7969079772670018" /><vType id="vType_bus_10.234577497866285" accel="1.0" decel="5.0" sigma="0.0" length="13" maxSpeed="2.842938193851746" /><vType id="vType_car_3.149231453444843" accel="1.0" decel="5.0" sigma="0.0" length="4.5" maxSpeed="0.8747865148457896" /><vType id="vType_car_16.77635264454856" accel="1.0" decel="5.0" sigma="0.0" length="4.5" maxSpeed="4.660097956819044" /><vType id="vType_car_12.514749487953823" accel="1.0" decel="5.0" sigma="0.0" length="4.5" maxSpeed="3.4763193022093954" /><vType id="vType_car_19.423297202541548" accel="1.0" decel="5.0" sigma="0.0" length="4.5" maxSpeed="5.395360334039319" /><vType id="vType_car_11.659183058628077" accel="1.0" decel="5.0" sigma="0.0" length="4.5" maxSpeed="3.2386619607300213" /><vType id="vType_car_15.702806730585214" accel="1.0" decel="5.0" sigma="0.0" length="4.5" maxSpeed="4.361890758495893" /><vType id="vType_car_1.4450891938937789" accel="1.0" decel="5.0" sigma="0.0" length="4.5" maxSpeed="0.40141366497049413" /><vType id="vType_car_15.73518855652027" accel="1.0" decel="5.0" sigma="0.0" length="4.5" maxSpeed="4.3708857101445195" /><vType id="vType_car_3.6490098855305755" accel="1.0" decel="5.0" sigma="0.0" length="4.5" maxSpeed="1.0136138570918265" /><vType id="vType_car_11.353023272198232" accel="1.0" decel="5.0" sigma="0.0" length="4.5" maxSpeed="3.15361757561062" /><vType id="vType_car_19.21701231330803" accel="1.0" decel="5.0" sigma="0.0" length="4.5" maxSpeed="5.338058975918897" /><vType id="vType_car_2.5933212504283825" accel="1.0" decel="5.0" sigma="0.0" length="4.5" maxSpeed="0.720367014007884" /><vType id="vType_car_11.987703074872421" accel="1.0" decel="5.0" sigma="0.0" length="4.5" maxSpeed="3.3299175207978946" /><vType id="vType_car_18.193278317768716" accel="1.0" decel="5.0" sigma="0.0" length="4.5" maxSpeed="5.053688421602421" /><vType id="vType_car_12.34503751112608" accel="1.0" decel="5.0" sigma="0.0" length="4.5" maxSpeed="3.429177086423911" /><vType id="vType_car_7.996959911861116" accel="1.0" decel="5.0" sigma="0.0" length="4.5" maxSpeed="2.2213777532947545" /><vType id="vType_car_19.446110635805834" accel="1.0" decel="5.0" sigma="0.0" length="4.5" maxSpeed="5.401697398834954" /><vType id="vType_car_20.25646235880941" accel="1.0" decel="5.0" sigma="0.0" length="4.5" maxSpeed="5.626795099669281" /><vType id="vType_car_2.7081324644501574" accel="1.0" decel="5.0" sigma="0.0" length="4.5" maxSpeed="0.7522590179028215" /><vType id="vType_car_22.04227612377268" accel="1.0" decel="5.0" sigma="0.0" length="4.5" maxSpeed="6.122854478825745" /><vType id="vType_bus_16.494195982649035" accel="1.0" decel="5.0" sigma="0.0" length="13" maxSpeed="4.581721106291399" /><vType id="vType_car_22.277522118175554" accel="1.0" decel="5.0" sigma="0.0" length="4.5" maxSpeed="6.188200588382098" /><vType id="vType_car_33.870939565193886" accel="1.0" decel="5.0" sigma="0.0" length="4.5" maxSpeed="9.408594323664968" /><vType id="vType_car_25.502450334916414" accel="1.0" decel="5.0" sigma="0.0" length="4.5" maxSpeed="7.084013981921226" /><vType id="vType_car_18.886466998598706" accel="1.0" decel="5.0" sigma="0.0" length="4.5" maxSpeed="5.246240832944085" /><vType id="vType_car_23.20758979355448" accel="1.0" decel="5.0" sigma="0.0" length="4.5" maxSpeed="6.4465527204318" /><vType id="vType_car_24.447889069678688" accel="1.0" decel="5.0" sigma="0.0" length="4.5" maxSpeed="6.791080297132969" /><vType id="vType_car_2.452311669192345" accel="1.0" decel="5.0" sigma="0.0" length="4.5" maxSpeed="0.6811976858867624" /><vType id="vType_car_24.76705124929537" accel="1.0" decel="5.0" sigma="0.0" length="4.5" maxSpeed="6.879736458137603" /><vType id="vType_car_2.9847756010292725" accel="1.0" decel="5.0" sigma="0.0" length="4.5" maxSpeed="0.8291043336192423" /><vType id="vType_car_19.162028093618275" accel="1.0" decel="5.0" sigma="0.0" length="4.5" maxSpeed="5.322785581560632" /><vType id="vType_car_30.79475915098291" accel="1.0" decel="5.0" sigma="0.0" length="4.5" maxSpeed="8.554099764161919" /><vType id="vType_car_25.694309981098524" accel="1.0" decel="5.0" sigma="0.0" length="4.5" maxSpeed="7.1373083280829235" /><vType id="vType_car_14.236444530360107" accel="1.0" decel="5.0" sigma="0.0" length="4.5" maxSpeed="3.9545679251000294" /><vType id="vType_car_2.22152513059688" accel="1.0" decel="5.0" sigma="0.0" length="4.5" maxSpeed="0.617090314054689" /><vType id="vType_car_4.985018202436256" accel="1.0" decel="5.0" sigma="0.0" length="4.5" maxSpeed="1.3847272784545157" /><vType id="vType_car_30.35785106572921" accel="1.0" decel="5.0" sigma="0.0" length="4.5" maxSpeed="8.432736407147003" /><vType id="vType_car_13.152503593115334" accel="1.0" decel="5.0" sigma="0.0" length="4.5" maxSpeed="3.653473220309815" /><vType id="vType_car_20.368507159053284" accel="1.0" decel="5.0" sigma="0.0" length="4.5" maxSpeed="5.657918655292579" /><vType id="vType_car_15.31601882461434" accel="1.0" decel="5.0" sigma="0.0" length="4.5" maxSpeed="4.254449673503983" /><vType id="vType_car_19.785141027306146" accel="1.0" decel="5.0" sigma="0.0" length="4.5" maxSpeed="5.49587250758504" /><vType id="vType_car_45.899446584305785" accel="1.0" decel="5.0" sigma="0.0" length="4.5" maxSpeed="12.749846273418273" /><vType id="vType_car_5.280737522109214" accel="1.0" decel="5.0" sigma="0.0" length="4.5" maxSpeed="1.466871533919226" /><vType id="vType_car_2.2833658430267643" accel="1.0" decel="5.0" sigma="0.0" length="4.5" maxSpeed="0.6342682897296568" /><vType id="vType_car_2.6004866062933836" accel="1.0" decel="5.0" sigma="0.0" length="4.5" maxSpeed="0.722357390637051" /><vType id="vType_car_18.458011205738686" accel="1.0" decel="5.0" sigma="0.0" length="4.5" maxSpeed="5.127225334927412" /><vType id="vType_car_5.968003081717798" accel="1.0" decel="5.0" sigma="0.0" length="4.5" maxSpeed="1.6577786338104994" /><vType id="vType_car_22.04161951590632" accel="1.0" decel="5.0" sigma="0.0" length="4.5" maxSpeed="6.122672087751755" /><vType id="vType_car_3.8795675908944927" accel="1.0" decel="5.0" sigma="0.0" length="4.5" maxSpeed="1.077657664137359" /><vType id="vType_car_5.96944503073183" accel="1.0" decel="5.0" sigma="0.0" length="4.5" maxSpeed="1.658179175203286" /><vType id="vType_car_18.211441810158778" accel="1.0" decel="5.0" sigma="0.0" length="4.5" maxSpeed="5.058733836155216" /><vType id="vType_car_22.898291763619728" accel="1.0" decel="5.0" sigma="0.0" length="4.5" maxSpeed="6.36063660100548" /><vType id="vType_car_3.1389348768269834" accel="1.0" decel="5.0" sigma="0.0" length="4.5" maxSpeed="0.871926354674162" /><vType id="vType_car_25.359641964608056" accel="1.0" decel="5.0" sigma="0.0" length="4.5" maxSpeed="7.044344990168904" /><vType id="vType_car_2.9997525862110077" accel="1.0" decel="5.0" sigma="0.0" length="4.5" maxSpeed="0.8332646072808354" /><vType id="vType_car_23.648408920506164" accel="1.0" decel="5.0" sigma="0.0" length="4.5" maxSpeed="6.569002477918379" /><vType id="vType_car_1.4394443142301314" accel="1.0" decel="5.0" sigma="0.0" length="4.5" maxSpeed="0.39984564284170315" /><vType id="vType_car_4.78507773852323" accel="1.0" decel="5.0" sigma="0.0" length="4.5" maxSpeed="1.3291882607008974" /><vType id="vType_car_22.17122148282538" accel="1.0" decel="5.0" sigma="0.0" length="4.5" maxSpeed="6.158672634118161" /><vType id="vType_car_15.27014880010612" accel="1.0" decel="5.0" sigma="0.0" length="4.5" maxSpeed="4.241708000029478" /><vType id="vType_car_27.181648327185155" accel="1.0" decel="5.0" sigma="0.0" length="4.5" maxSpeed="7.5504578686625425" /><vType id="vType_car_13.197520257069637" accel="1.0" decel="5.0" sigma="0.0" length="4.5" maxSpeed="3.66597784918601" /><vType id="vType_car_13.790117385326585" accel="1.0" decel="5.0" sigma="0.0" length="4.5" maxSpeed="3.830588162590718" /><vType id="vType_car_7.80400095978457" accel="1.0" decel="5.0" sigma="0.0" length="4.5" maxSpeed="2.167778044384603" /><vType id="vType_car_9.80111813135289" accel="1.0" decel="5.0" sigma="0.0" length="4.5" maxSpeed="2.722532814264692" /><vType id="vType_car_2.9821746392579733" accel="1.0" decel="5.0" sigma="0.0" length="4.5" maxSpeed="0.828381844238326" /><vType id="vType_car_9.712415303223812" accel="1.0" decel="5.0" sigma="0.0" length="4.5" maxSpeed="2.697893139784392" /><vType id="vType_car_7.142798050354136" accel="1.0" decel="5.0" sigma="0.0" length="4.5" maxSpeed="1.9841105695428154" /><vType id="vType_car_8.613968433949172" accel="1.0" decel="5.0" sigma="0.0" length="4.5" maxSpeed="2.3927690094303253" /><vType id="vType_car_8.79641236895623" accel="1.0" decel="5.0" sigma="0.0" length="4.5" maxSpeed="2.443447880265619" /><vType id="vType_car_4.064313357826253" accel="1.0" decel="5.0" sigma="0.0" length="4.5" maxSpeed="1.1289759327295148" /><vType id="vType_car_3.9797552479530265" accel="1.0" decel="5.0" sigma="0.0" length="4.5" maxSpeed="1.1054875688758408" /><vType id="vType_car_6.24208131117695" accel="1.0" decel="5.0" sigma="0.0" length="4.5" maxSpeed="1.7339114753269305" /><vType id="vType_car_3.647635375178865" accel="1.0" decel="5.0" sigma="0.0" length="4.5" maxSpeed="1.0132320486607957" /><vType id="vType_car_15.868470751539789" accel="1.0" decel="5.0" sigma="0.0" length="4.5" maxSpeed="4.407908542094385" /><vType id="vType_car_57.34721102924889" accel="1.0" decel="5.0" sigma="0.0" length="4.5" maxSpeed="15.929780841458024" /><vType id="vType_car_5.385109456561778" accel="1.0" decel="5.0" sigma="0.0" length="4.5" maxSpeed="1.495863737933827" /><vType id="vType_car_27.17806324647124" accel="1.0" decel="5.0" sigma="0.0" length="4.5" maxSpeed="7.549462012908678" /><vType id="vType_car_33.949681145249826" accel="1.0" decel="5.0" sigma="0.0" length="4.5" maxSpeed="9.430466984791618" /><vType id="vType_car_39.11253917918706" accel="1.0" decel="5.0" sigma="0.0" length="4.5" maxSpeed="10.86459421644085" /><vType id="vType_car_14.170365085750076" accel="1.0" decel="5.0" sigma="0.0" length="4.5" maxSpeed="3.9362125238194654" /><vType id="vType_car_31.743090573753" accel="1.0" decel="5.0" sigma="0.0" length="4.5" maxSpeed="8.817525159375833" /><vType id="vType_car_48.90383915530168" accel="1.0" decel="5.0" sigma="0.0" length="4.5" maxSpeed="13.584399765361578" /><vType id="vType_car_2.9340080671569373" accel="1.0" decel="5.0" sigma="0.0" length="4.5" maxSpeed="0.815002240876927" /><vType id="vType_car_40.003260777372205" accel="1.0" decel="5.0" sigma="0.0" length="4.5" maxSpeed="11.11201688260339" /><vType id="vType_car_2.679513378615331" accel="1.0" decel="5.0" sigma="0.0" length="4.5" maxSpeed="0.744309271837592" /><vType id="vType_car_35.95553556207879" accel="1.0" decel="5.0" sigma="0.0" length="4.5" maxSpeed="9.987648767244108" /><vType id="vType_car_12.663844468871279" accel="1.0" decel="5.0" sigma="0.0" length="4.5" maxSpeed="3.5177345746864663" /><vType id="vType_car_0.08467319495471361" accel="1.0" decel="5.0" sigma="0.0" length="4.5" maxSpeed="0.02352033193186489" /><vType id="vType_car_40.218466728991565" accel="1.0" decel="5.0" sigma="0.0" length="4.5" maxSpeed="11.171796313608768" /><vType id="vType_car_33.193528509207695" accel="1.0" decel="5.0" sigma="0.0" length="4.5" maxSpeed="9.220424585891026" /><vType id="vType_car_1.524117509184845" accel="1.0" decel="5.0" sigma="0.0" length="4.5" maxSpeed="0.423365974773568" /><vType id="vType_car_31.8739265905741" accel="1.0" decel="5.0" sigma="0.0" length="4.5" maxSpeed="8.853868497381695" /><vType id="vType_car_4.8846967370652585" accel="1.0" decel="5.0" sigma="0.0" length="4.5" maxSpeed="1.3568602047403495" /><vType id="vType_car_29.984900061156214" accel="1.0" decel="5.0" sigma="0.0" length="4.5" maxSpeed="8.329138905876725" /><vType id="vType_car_7.663742763162695" accel="1.0" decel="5.0" sigma="0.0" length="4.5" maxSpeed="2.1288174342118595" /><vType id="vType_car_1.976859898534538" accel="1.0" decel="5.0" sigma="0.0" length="4.5" maxSpeed="0.5491277495929272" /><vType id="vType_car_2.596169874585098" accel="1.0" decel="5.0" sigma="0.0" length="4.5" maxSpeed="0.7211582984958606" /><vType id="vType_car_12.966614593254558" accel="1.0" decel="5.0" sigma="0.0" length="4.5" maxSpeed="3.6018373870151548" /><vType id="vType_car_15.449914280644466" accel="1.0" decel="5.0" sigma="0.0" length="4.5" maxSpeed="4.291642855734573" /><vType id="vType_car_17.398893702361956" accel="1.0" decel="5.0" sigma="0.0" length="4.5" maxSpeed="4.833026028433877" /><vType id="vType_car_14.931598727931037" accel="1.0" decel="5.0" sigma="0.0" length="4.5" maxSpeed="4.147666313314177" /><vType id="vType_car_2.9675938803175828" accel="1.0" decel="5.0" sigma="0.0" length="4.5" maxSpeed="0.8243316334215507" /><vType id="vType_car_9.203688470760257" accel="1.0" decel="5.0" sigma="0.0" length="4.5" maxSpeed="2.556580130766738" /><vType id="vType_car_21.310623799571463" accel="1.0" decel="5.0" sigma="0.0" length="4.5" maxSpeed="5.919617722103184" /><vType id="vType_car_13.839058999683603" accel="1.0" decel="5.0" sigma="0.0" length="4.5" maxSpeed="3.8441830554676675" /><vType id="vType_car_18.457526072508564" accel="1.0" decel="5.0" sigma="0.0" length="4.5" maxSpeed="5.1270905756968235" /><vType id="vType_car_17.14690122886504" accel="1.0" decel="5.0" sigma="0.0" length="4.5" maxSpeed="4.763028119129178" /><vType id="vType_car_21.691834255708514" accel="1.0" decel="5.0" sigma="0.0" length="4.5" maxSpeed="6.025509515474587" /><vType id="vType_car_3.5909232757300136" accel="1.0" decel="5.0" sigma="0.0" length="4.5" maxSpeed="0.9974786877027815" /><vType id="vType_car_3.10931397265989" accel="1.0" decel="5.0" sigma="0.0" length="4.5" maxSpeed="0.8636983257388584" /><vType id="vType_car_16.670443952668666" accel="1.0" decel="5.0" sigma="0.0" length="4.5" maxSpeed="4.630678875741296" /><vType id="vType_car_31.41599946657343" accel="1.0" decel="5.0" sigma="0.0" length="4.5" maxSpeed="8.72666651849262" /><vType id="vType_car_25.091774874988513" accel="1.0" decel="5.0" sigma="0.0" length="4.5" maxSpeed="6.969937465274587" /><vType id="vType_car_2.102404070282963" accel="1.0" decel="5.0" sigma="0.0" length="4.5" maxSpeed="0.5840011306341564" /><vType id="vType_car_29.3209802321824" accel="1.0" decel="5.0" sigma="0.0" length="4.5" maxSpeed="8.144716731161777" /><vType id="vType_car_13.796854081260364" accel="1.0" decel="5.0" sigma="0.0" length="4.5" maxSpeed="3.8324594670167675" /><vType id="vType_car_7.37453752529746" accel="1.0" decel="5.0" sigma="0.0" length="4.5" maxSpeed="2.048482645915961" /><vType id="vType_car_25.845361677996465" accel="1.0" decel="5.0" sigma="0.0" length="4.5" maxSpeed="7.179267132776795" /><vType id="vType_car_36.51869001726594" accel="1.0" decel="5.0" sigma="0.0" length="4.5" maxSpeed="10.14408056035165" /><vType id="vType_car_35.85598301895711" accel="1.0" decel="5.0" sigma="0.0" length="4.5" maxSpeed="9.959995283043641" /><vType id="vType_car_28.51632231840355" accel="1.0" decel="5.0" sigma="0.0" length="4.5" maxSpeed="7.921200644000986" /><vType id="vType_car_11.183950524828461" accel="1.0" decel="5.0" sigma="0.0" length="4.5" maxSpeed="3.1066529235634612" /><vType id="vType_car_40.9187665996583" accel="1.0" decel="5.0" sigma="0.0" length="4.5" maxSpeed="11.366324055460638" /><vType id="vType_car_1.114961059081838" accel="1.0" decel="5.0" sigma="0.0" length="4.5" maxSpeed="0.30971140530051056" /><vType id="vType_car_9.600717091726535" accel="1.0" decel="5.0" sigma="0.0" length="4.5" maxSpeed="2.6668658588129266" /><vType id="vType_car_2.8599779439543735" accel="1.0" decel="5.0" sigma="0.0" length="4.5" maxSpeed="0.7944383177651038" /><vType id="vType_car_46.37809540168652" accel="1.0" decel="5.0" sigma="0.0" length="4.5" maxSpeed="12.882804278246256" /><vType id="vType_car_2.871793011437126" accel="1.0" decel="5.0" sigma="0.0" length="4.5" maxSpeed="0.7977202809547572" /><vType id="vType_car_3.3730482401249535" accel="1.0" decel="5.0" sigma="0.0" length="4.5" maxSpeed="0.9369578444791538" /><vType id="vType_car_2.9150032079106296" accel="1.0" decel="5.0" sigma="0.0" length="4.5" maxSpeed="0.8097231133085082" /><vType id="vType_car_6.890758301012222" accel="1.0" decel="5.0" sigma="0.0" length="4.5" maxSpeed="1.9140995280589506" /><vType id="vType_car_1.8654463841767392" accel="1.0" decel="5.0" sigma="0.0" length="4.5" maxSpeed="0.5181795511602053" /><vType id="vType_car_38.01658105806385" accel="1.0" decel="5.0" sigma="0.0" length="4.5" ma