<?xml version='1.0' encoding='utf-8'?>
<routes><vType id="vType_car_7.855034446649961" accel="1.0" decel="5.0" sigma="0.0" length="4.5" maxSpeed="2.1819540129583226" /><vType id="vType_car_2.8254532555874188" accel="1.0" decel="5.0" sigma="0.0" length="4.5" maxSpeed="0.7848481265520607" /><vType id="vType_car_2.902390300151374" accel="1.0" decel="5.0" sigma="0.0" length="4.5" maxSpeed="0.8062195278198261" /><vType id="vType_car_3.882054834555353" accel="1.0" decel="5.0" sigma="0.0" length="4.5" maxSpeed="1.0783485651542646" /><vType id="vType_car_9.014147826028905" accel="1.0" decel="5.0" sigma="0.0" length="4.5" maxSpeed="2.503929951674696" /><vType id="vType_car_2.7880094396087975" accel="1.0" decel="5.0" sigma="0.0" length="4.5" maxSpeed="0.7744470665579993" /><vType id="vType_car_5.488364173764618" accel="1.0" decel="5.0" sigma="0.0" length="4.5" maxSpeed="1.5245456038235048" /><vType id="vType_car_48.957486795850905" accel="1.0" decel="5.0" sigma="0.0" length="4.5" maxSpeed="13.599301887736361" /><vType id="vType_car_3.0148779768657525" accel="1.0" decel="5.0" sigma="0.0" length="4.5" maxSpeed="0.8374661046849312" /><vType id="vType_car_42.045515966721105" accel="1.0" decel="5.0" sigma="0.0" length="4.5" maxSpeed="11.679309990755863" /><vType id="vType_car_55.2571512183491" accel="1.0" decel="5.0" sigma="0.0" length="4.5" maxSpeed="15.34920867176364" /><vType id="vType_car_2.844046171597323" accel="1.0" decel="5.0" sigma="0.0" length="4.5" maxSpeed="0.7900128254437009" /><vType id="vType_car_2.8995434059750753" accel="1.0" decel="5.0" sigma="0.0" length="4.5" maxSpeed="0.8054287238819653" /><vType id="vType_car_3.053079384329504" accel="1.0" decel="5.0" sigma="0.0" length="4.5" maxSpeed="0.8480776067581955" /><vType id="vType_car_13.522755850660044" accel="1.0" decel="5.0" sigma="0.0" length="4.5" maxSpeed="3.75632106962779" /><vType id="vType_car_32.562920959458175" accel="1.0" decel="5.0" sigma="0.0" length="4.5" maxSpeed="9.045255822071715" /><vType id="vType_car_5.148589719983288" accel="1.0" decel="5.0" sigma="0.0" length="4.5" maxSpeed="1.430163811106469" /><vType id="vType_car_41.01700352461605" accel="1.0" decel="5.0" sigma="0.0" length="4.5" maxSpeed="11.393612090171125" /><vType id="vType_car_3.2837386737074015" accel="1.0" decel="5.0" sigma="0.0" length="4.5" maxSpeed="0.9121496315853893" /><vType id="vType_car_39.14631904076582" accel="1.0" decel="5.0" sigma="0.0" length="4.5" maxSpeed="10.873977511323838" /><vType id="vType_car_40.7033360748915" accel="1.0" decel="5.0" sigma="0.0" length="4.5" maxSpeed="11.306482243025417" /><vType id="vType_car_8.830337298034504" accel="1.0" decel="5.0" sigma="0.0" length="4.5" maxSpeed="2.452871471676251" /><vType id="vType_car_36.175765145406075" accel="1.0" decel="5.0" sigma="0.0" length="4.5" maxSpeed="10.048823651501687" /><vType id="vType_car_47.58756771728298" accel="1.0" decel="5.0" sigma="0.0" length="4.5" maxSpeed="13.218768810356384" /><vType id="vType_truck_19.569881625475425" accel="1.0" decel="5.0" sigma="0.0" length="8" maxSpeed="5.436078229298729" /><vType id="vType_car_4.158179498785207" accel="1.0" decel="5.0" sigma="0.0" length="4.5" maxSpeed="1.1550498607736688" /><vType id="vType_car_2.766589646096017" accel="1.0" decel="5.0" sigma="0.0" length="4.5" maxSpeed="0.7684971239155602" /><vType id="vType_car_43.078168031904355" accel="1.0" decel="5.0" sigma="0.0" length="4.5" maxSpeed="11.966157786640098" /><vType id="vType_car_47.53639154804012" accel="1.0" decel="5.0" sigma="0.0" length="4.5" maxSpeed="13.204553207788923" /><vType id="vType_car_37.83004543789416" accel="1.0" decel="5.0" sigma="0.0" length="4.5" maxSpeed="10.508345954970599" /><vType id="vType_car_36.398721534669995" accel="1.0" decel="5.0" sigma="0.0" length="4.5" maxSpeed="10.110755981852776" /><vType id="vType_car_38.10409804849318" accel="1.0" decel="5.0" sigma="0.0" length="4.5" maxSpeed="10.584471680136994" /><vType id="vType_car_3.5630670883542024" accel="1.0" decel="5.0" sigma="0.0" length="4.5" maxSpeed="0.9897408578761673" /><vType id="vType_car_46.22511661622315" accel="1.0" decel="5.0" sigma="0.0" length="4.5" maxSpeed="12.840310171173096" /><vType id="vType_car_2.860442609921165" accel="1.0" decel="5.0" sigma="0.0" length="4.5" maxSpeed="0.7945673916447681" /><vType id="vType_car_45.941468865528655" accel="1.0" decel="5.0" sigma="0.0" length="4.5" maxSpeed="12.761519129313514" /><vType id="vType_car_9.227860572723971" accel="1.0" decel="5.0" sigma="0.0" length="4.5" maxSpeed="2.563294603534436" /><vType id="vType_car_11.695471875810293" accel="1.0" decel="5.0" sigma="0.0" length="4.5" maxSpeed="3.2487421877250813" /><vType id="vType_car_16.502789565677674" accel="1.0" decel="5.0" sigma="0.0" length="4.5" maxSpeed="4.584108212688243" /><vType id="vType_car_56.132832251486576" accel="1.0" decel="5.0" sigma="0.0" length="4.5" maxSpeed="15.592453403190715" /><vType id="vType_car_48.00469925249562" accel="1.0" decel="5.0" sigma="0.0" length="4.5" maxSpeed="13.334638681248784" /><vType id="vType_car_9.35950718036272" accel="1.0" decel="5.0" sigma="0.0" length="4.5" maxSpeed="2.599863105656311" /><vType id="vType_car_2.9826297149731453" accel="1.0" decel="5.0" sigma="0.0" length="4.5" maxSpeed="0.828508254159207" /><vType id="vType_car_3.3645498973097383" accel="1.0" decel="5.0" sigma="0.0" length="4.5" maxSpeed="0.9345971936971496" /><vType id="vType_car_6.186282514517781" accel="1.0" decel="5.0" sigma="0.0" length="4.5" maxSpeed="1.7184118095882723" /><vType id="vType_car_42.01469386904999" accel="1.0" decel="5.0" sigma="0.0" length="4.5" maxSpeed="11.670748296958331" /><vType id="vType_car_6.816808595141266" accel="1.0" decel="5.0" sigma="0.0" length="4.5" maxSpeed="1.893557943094796" /><vType id="vType_car_3.418681079267678" accel="1.0" decel="5.0" sigma="0.0" length="4.5" maxSpeed="0.9496336331299106" /><vType id="vType_car_2.7604179740516313" accel="1.0" decel="5.0" sigma="0.0" length="4.5" maxSpeed="0.7667827705698975" /><vType id="vType_car_37.05085624591724" accel="1.0" decel="5.0" sigma="0.0" length="4.5" maxSpeed="10.291904512754789" /><vType id="vType_car_8.967568192229061" accel="1.0" decel="5.0" sigma="0.0" length="4.5" maxSpeed="2.4909911645080727" /><vType id="vType_car_5.3912694413684035" accel="1.0" decel="5.0" sigma="0.0" length="4.5" maxSpeed="1.4975748448245565" /><vType id="vType_car_13.659873347408421" accel="1.0" decel="5.0" sigma="0.0" length="4.5" maxSpeed="3.7944092631690056" /><vType id="vType_car_7.760491857889279" accel="1.0" decel="5.0" sigma="0.0" length="4.5" maxSpeed="2.1556921827470217" /><vType id="vType_car_15.4624892619001" accel="1.0" decel="5.0" sigma="0.0" length="4.5" maxSpeed="4.2951359060833605" /><vType id="vType_car_4.3144118474558235" accel="1.0" decel="5.0" sigma="0.0" length="4.5" maxSpeed="1.1984477354043954" /><vType id="vType_car_14.787660348667798" accel="1.0" decel="5.0" sigma="0.0" length="4.5" maxSpeed="4.107683430185499" /><vType id="vType_car_4.149884469144025" accel="1.0" decel="5.0" sigma="0.0" length="4.5" maxSpeed="1.1527456858733403" /><vType id="vType_car_6.370835236631489" accel="1.0" decel="5.0" sigma="0.0" length="4.5" maxSpeed="1.769676454619858" /><vType id="vType_car_6.5773184751780756" accel="1.0" decel="5.0" sigma="0.0" length="4.5" maxSpeed="1.8270329097716875" /><vType id="vType_car_11.489830573027398" accel="1.0" decel="5.0" sigma="0.0" length="4.5" maxSpeed="3.1916196036187214" /><vType id="vType_car_48.86705571934823" accel="1.0" decel="5.0" sigma="0.0" length="4.5" maxSpeed="13.574182144263396" /><vType id="vType_car_3.9063378249769363" accel="1.0" decel="5.0" sigma="0.0" length="4.5" maxSpeed="1.0850938402713712" /><vType id="vType_car_4.140085340796507" accel="1.0" decel="5.0" sigma="0.0" length="4.5" maxSpeed="1.1500237057768075" /><vType id="vType_car_9.381029348018314" accel="1.0" decel="5.0" sigma="0.0" length="4.5" maxSpeed="2.6058414855606427" /><vType id="vType_car_3.223154828231588" accel="1.0" decel="5.0" sigma="0.0" length="4.5" maxSpeed="0.8953207856198855" /><vType id="vType_car_7.92173992087956" accel="1.0" decel="5.0" sigma="0.0" length="4.5" maxSpeed="2.200483311355433" /><vType id="vType_car_6.643237775444002" accel="1.0" decel="5.0" sigma="0.0" length="4.5" maxSpeed="1.8453438265122228" /><vType id="vType_car_12.099036468473829" accel="1.0" decel="5.0" sigma="0.0" length="4.5" maxSpeed="3.360843463464952" /><vType id="vType_car_23.318941581265033" accel="1.0" decel="5.0" sigma="0.0" length="4.5" maxSpeed="6.4774837725736205" /><vType id="vType_car_8.780756865826866" accel="1.0" decel="5.0" sigma="0.0" length="4.5" maxSpeed="2.4390991293963515" /><vType id="vType_car_2.612890221312904" accel="1.0" decel="5.0" sigma="0.0" length="4.5" maxSpeed="0.7258028392535845" /><vType id="vType_car_9.441013157667655" accel="1.0" decel="5.0" sigma="0.0" length="4.5" maxSpeed="2.622503654907682" /><vType id="vType_car_13.660354389557396" accel="1.0" decel="5.0" sigma="0.0" length="4.5" maxSpeed="3.7945428859881654" /><vType id="vType_car_13.546707893294965" accel="1.0" decel="5.0" sigma="0.0" length="4.5" maxSpeed="3.7629744148041566" /><vType id="vType_car_15.08150366036801" accel="1.0" decel="5.0" sigma="0.0" length="4.5" maxSpeed="4.189306572324448" /><vType id="vType_car_2.7831977468631743" accel="1.0" decel="5.0" sigma="0.0" length="4.5" maxSpeed="0.7731104852397707" /><vType id="vType_car_2.9295585836599" accel="1.0" decel="5.0" sigma="0.0" length="4.5" maxSpeed="0.8137662732388611" /><vType id="vType_car_3.3745031930739517" accel="1.0" decel="5.0" sigma="0.0" length="4.5" maxSpeed="0.9373619980760977" /><vType id="vType_car_9.600094647127943" accel="1.0" decel="5.0" sigma="0.0" length="4.5" maxSpeed="2.6666929575355396" /><vType id="vType_car_21.839351581382342" accel="1.0" decel="5.0" sigma="0.0" length="4.5" maxSpeed="6.066486550383984" /><vType id="vType_car_3.7260758202012267" accel="1.0" decel="5.0" sigma="0.0" length="4.5" maxSpeed="1.0350210611670074" /><vType id="vType_car_6.6670899107228925" accel="1.0" decel="5.0" sigma="0.0" length="4.5" maxSpeed="1.8519694196452479" /><vType id="vType_car_7.107138900859261" accel="1.0" decel="5.0" sigma="0.0" length="4.5" maxSpeed="1.9742052502386835" /><vType id="vType_car_2.6436593526186707" accel="1.0" decel="5.0" sigma="0.0" length="4.5" maxSpeed="0.7343498201718529" /><vType id="vType_car_26.979324241830255" accel="1.0" decel="5.0" sigma="0.0" length="4.5" maxSpeed="7.494256733841738" /><vType id="vType_car_3.053079384329505" accel="1.0" decel="5.0" sigma="0.0" length="4.5" maxSpeed="0.8480776067581958" /><vType id="vType_car_5.533179292192034" accel="1.0" decel="5.0" sigma="0.0" length="4.5" maxSpeed="1.5369942478311205" /><vType id="vType_car_2.346506271250642" accel="1.0" decel="5.0" sigma="0.0" length="4.5" maxSpeed="0.6518072975696229" /><vType id="vType_car_15.655837656950904" accel="1.0" decel="5.0" sigma="0.0" length="4.5" maxSpeed="4.3488437935974735" /><vType id="vType_car_49.976108746359856" accel="1.0" decel="5.0" sigma="0.0" length="4.5" maxSpeed="13.882252429544405" /><vType id="vType_car_10.738033556055285" accel="1.0" decel="5.0" sigma="0.0" length="4.5" maxSpeed="2.9827870989042458" /><vType id="vType_car_19.038802152301116" accel="1.0" decel="5.0" sigma="0.0" length="4.5" maxSpeed="5.288556153416977" /><vType id="vType_car_7.615859670458255" accel="1.0" decel="5.0" sigma="0.0" length="4.5" maxSpeed="2.115516575127293" /><vType id="vType_car_38.04019314120576" accel="1.0" decel="5.0" sigma="0.0" length="4.5" maxSpeed="10.5667203170016" /><vType id="vType_car_12.044436500744894" accel="1.0" decel="5.0" sigma="0.0" length="4.5" maxSpeed="3.34567680576247" /><vType id="vType_car_10.227163691716186" accel="1.0" decel="5.0" sigma="0.0" length="4.5" maxSpeed="2.840878803254496" /><vType id="vType_car_2.5435781029138873" accel="1.0" decel="5.0" sigma="0.0" length="4.5" maxSpeed="0.7065494730316354" /><vType id="vType_car_25.298294239229623" accel="1.0" decel="5.0" sigma="0.0" length="4.5" maxSpeed="7.027303955341562" /><vType id="vType_car_18.213793227472795" accel="1.0" decel="5.0" sigma="0.0" length="4.5" maxSpeed="5.059387007631332" /><vType id="vType_car_37.848097513809925" accel="1.0" decel="5.0" sigma="0.0" length="4.5" maxSpeed="10.513360420502757" /><vType id="vType_car_27.060436036157604" accel="1.0" decel="5.0" sigma="0.0" length="4.5" maxSpeed="7.516787787821556" /><vType id="vType_car_1.8242067674143094" accel="1.0" decel="5.0" sigma="0.0" length="4.5" maxSpeed="0.5067241020595303" /><vType id="vType_car_3.9125485990299684" accel="1.0" decel="5.0" sigma="0.0" length="4.5" maxSpeed="1.0868190552861023" /><vType id="vType_car_5.015006262294928" accel="1.0" decel="5.0" sigma="0.0" length="4.5" maxSpeed="1.3930572950819242" /><vType id="vType_car_22.75851628518872" accel="1.0" decel="5.0" sigma="0.0" length="4.5" maxSpeed="6.321810079219088" /><vType id="vType_car_30.71121202335741" accel="1.0" decel="5.0" sigma="0.0" length="4.5" maxSpeed="8.530892228710393" /><vType id="vType_car_9.267623213831268" accel="1.0" decel="5.0" sigma="0.0" length="4.5" maxSpeed="2.5743397816197966" /><vType id="vType_car_8.253842843556551" accel="1.0" decel="5.0" sigma="0.0" length="4.5" maxSpeed="2.292734123210153" /><vType id="vType_car_43.07182328748541" accel="1.0" decel="5.0" sigma="0.0" length="4.5" maxSpeed="11.964395357634835" /><vType id="vType_car_8.925306166111467" accel="1.0" decel="5.0" sigma="0.0" length="4.5" maxSpeed="2.4792517128087406" /><vType id="vType_car_3.983015950791692" accel="1.0" decel="5.0" sigma="0.0" length="4.5" maxSpeed="1.106393319664359" /><vType id="vType_car_35.81719196365577" accel="1.0" decel="5.0" sigma="0.0" length="4.5" maxSpeed="9.949219989904382" /><vType id="vType_car_14.95779332398038" accel="1.0" decel="5.0" sigma="0.0" length="4.5" maxSpeed="4.15494258999455" /><vType id="vType_car_2.8811855413894114" accel="1.0" decel="5.0" sigma="0.0" length="4.5" maxSpeed="0.8003293170526142" /><vType id="vType_car_5.639026054281614" accel="1.0" decel="5.0" sigma="0.0" length="4.5" maxSpeed="1.5663961261893373" /><vType id="vType_car_11.775813231901427" accel="1.0" decel="5.0" sigma="0.0" length="4.5" maxSpeed="3.2710592310837296" /><vType id="vType_car_5.643137122241724" accel="1.0" decel="5.0" sigma="0.0" length="4.5" maxSpeed="1.5675380895115898" /><vType id="vType_car_3.843147599872263" accel="1.0" decel="5.0" sigma="0.0" length="4.5" maxSpeed="1.0675409999645176" /><vType id="vType_car_2.9947532181713963" accel="1.0" decel="5.0" sigma="0.0" length="4.5" maxSpeed="0.831875893936499" /><vType id="vType_car_2.7665896460960187" accel="1.0" decel="5.0" sigma="0.0" length="4.5" maxSpeed="0.7684971239155607" /><vType id="vType_car_698.3377356030923" accel="1.0" decel="5.0" sigma="0.0" length="4.5" maxSpeed="193.98270433419228" /><vType id="vType_car_11.312259744261368" accel="1.0" decel="5.0" sigma="0.0" length="4.5" maxSpeed="3.1422943734059356" /><vType id="vType_car_3.075755071184706" accel="1.0" decel="5.0" sigma="0.0" length="4.5" maxSpeed="0.8543764086624184" /><vType id="vType_car_5.700958202576874" accel="1.0" decel="5.0" sigma="0.0" length="4.5" maxSpeed="1.5835995007157984" /><vType id="vType_car_20.60179237366056" accel="1.0" decel="5.0" sigma="0.0" length="4.5" maxSpeed="5.7227201037946" /><vType id="vType_car_13.468899209743368" accel="1.0" decel="5.0" sigma="0.0" length="4.5" maxSpeed="3.74136089159538" /><vType id="vType_car_52.31707188359158" accel="1.0" decel="5.0" sigma="0.0" length="4.5" maxSpeed="14.532519967664328" /><vType id="vType_car_8.673930734098166" accel="1.0" decel="5.0" sigma="0.0" length="4.5" maxSpeed="2.409425203916157" /><vType id="vType_car_3.0085117163458523" accel="1.0" decel="5.0" sigma="0.0" length="4.5" maxSpeed="0.8356976989849589" /><vType id="vType_car_3.318328622131713" accel="1.0" decel="5.0" sigma="0.0" length="4.5" maxSpeed="0.9217579505921425" /><vType id="vType_bus_417.0731375777645" accel="1.0" decel="5.0" sigma="0.0" length="13" maxSpeed="115.8536493271568" /><vType id="vType_car_186.53462695944773" accel="1.0" decel="5.0" sigma="0.0" length="4.5" maxSpeed="51.81517415540215" /><vType id="vType_car_383.93831238685954" accel="1.0" decel="5.0" sigma="0.0" length="4.5" maxSpeed="106.6495312185721" /><vType id="vType_truck_1080.5229197069661" accel="1.0" decel="5.0" sigma="0.0" length="8" maxSpeed="300.14525547415724" /><vType id="vType_car_598.7906561031417" accel="1.0" decel="5.0" sigma="0.0" length="4.5" maxSpeed="166.33073780642826" /><vType id="vType_car_14.740714451689609" accel="1.0" decel="5.0" sigma="0.0" length="4.5" maxSpeed="4.094642903247114" /><vType id="vType_car_16.663250372102663" accel="1.0" decel="5.0" sigma="0.0" length="4.5" maxSpeed="4.628680658917406" /><vType id="vType_car_1406.9543258575186" accel="1.0" decel="5.0" sigma="0.0" length="4.5" maxSpeed="390.8206460715329" /><vType id="vType_car_501.78728353290956" accel="1.0" decel="5.0" sigma="0.0" length="4.5" maxSpeed="139.38535653691932" /><vType id="vType_car_497.0641836094447" accel="1.0" decel="5.0" sigma="0.0" length="4.5" maxSpeed="138.07338433595686" /><vType id="vType_car_704.5738548571368" accel="1.0" decel="5.0" sigma="0.0" length="4.5" maxSpeed="195.714959682538" /><vType id="vType_car_523.4121472931424" accel="1.0" decel="5.0" sigma="0.0" length="4.5" maxSpeed="145.392263136984" /><vType id="vType_car_3.473401293999493" accel="1.0" decel="5.0" sigma="0.0" length="4.5" maxSpeed="0.964833692777637" /><vType id="vType_bus_9.800637935160866" accel="1.0" decel="5.0" sigma="0.0" length="13" maxSpeed="2.722399426433574" /><vType id="vType_car_230.54110816272723" accel="1.0" decel="5.0" sigma="0.0" length="4.5" maxSpeed="64.03919671186867" /><vType id="vType_car_613.3937184302787" accel="1.0" decel="5.0" sigma="0.0" length="4.5" maxSpeed="170.38714400841073" /><vType id="vType_car_34.960109531117425" accel="1.0" decel="5.0" sigma="0.0" length="4.5" maxSpeed="9.711141536421506" /><vType id="vType_car_137.8307133531508" accel="1.0" decel="5.0" sigma="0.0" length="4.5" maxSpeed="38.28630926476411" /><vType id="vType_car_5.446569748928321" accel="1.0" decel="5.0" sigma="0.0" length="4.5" maxSpeed="1.512936041368978" /><vType id="vType_car_81.81020760336874" accel="1.0" decel="5.0" sigma="0.0" length="4.5" maxSpeed="22.725057667602428" /><vType id="vType_car_6.370842955982033" accel="1.0" decel="5.0" sigma="0.0" length="4.5" maxSpeed="1.769678598883898" /><vType id="vType_car_34.13552265483325" accel="1.0" decel="5.0" sigma="0.0" length="4.5" maxSpeed="9.48208962634257" /><vType id="vType_car_81.62556055492362" accel="1.0" decel="5.0" sigma="0.0" length="4.5" maxSpeed="22.673766820812116" /><vType id="vType_car_6.646314344231287" accel="1.0" decel="5.0" sigma="0.0" length="4.5" maxSpeed="1.8461984289531352" /><vType id="vType_car_103.28018458488529" accel="1.0" decel="5.0" sigma="0.0" length="4.5" maxSpeed="28.688940162468135" /><vType id="vType_car_8.848331783913787" accel="1.0" decel="5.0" sigma="0.0" length="4.5" maxSpeed="2.4578699399760517" /><vType id="vType_truck_5.513401303015861" accel="1.0" decel="5.0" sigma="0.0" length="8" maxSpeed="1.5315003619488503" /><vType id="vType_car_105.84516705458215" accel="1.0" decel="5.0" sigma="0.0" length="4.5" maxSpeed="29.401435292939485" /><vType id="vType_car_10.616847987086574" accel="1.0" decel="5.0" sigma="0.0" length="4.5" maxSpeed="2.9491244408573816" /><vType id="vType_car_109.42963325002916" accel="1.0" decel="5.0" sigma="0.0" length="4.5" maxSpeed="30.39712034723032" /><vType id="vType_car_928.0149895305648" accel="1.0" decel="5.0" sigma="0.0" length="4.5" maxSpeed="257.781941536268" /><vType id="vType_car_39.72763006795863" accel="1.0" decel="5.0" sigma="0.0" length="4.5" maxSpeed="11.035452796655175" /><vType id="vType_car_21.445466662879934" accel="1.0" decel="5.0" sigma="0.0" length="4.5" maxSpeed="5.957074073022204" /><vType id="vType_car_26.09995452141298" accel="1.0" decel="5.0" sigma="0.0" length="4.5" maxSpeed="7.249987367059161" /><vType id="vType_car_1.9834779647130858" accel="1.0" decel="5.0" sigma="0.0" length="4.5" maxSpeed="0.5509661013091904" /><vType id="vType_car_6.327062614607106" accel="1.0" decel="5.0" sigma="0.0" length="4.5" maxSpeed="1.7575173929464183" /><vType id="vType_car_8.795031461220011" accel="1.0" decel="5.0" sigma="0.0" length="4.5" maxSpeed="2.4430642947833365" /><vType id="vType_car_2.6479882492837876" accel="1.0" decel="5.0" sigma="0.0" length="4.5" maxSpeed="0.7355522914677187" /><vType id="vType_car_1.4524406390319653" accel="1.0" decel="5.0" sigma="0.0" length="4.5" maxSpeed="0.4034557330644348" /><vType id="vType_car_8.153745667307215" accel="1.0" decel="5.0" sigma="0.0" length="4.5" maxSpeed="2.2649293520297817" /><vType id="vType_car_6.305514861110286" accel="1.0" decel="5.0" sigma="0.0" length="4.5" maxSpeed="1.7515319058639682" /><vType id="vType_car_12.004088839347487" accel="1.0" decel="5.0" sigma="0.0" length="4.5" maxSpeed="3.3344691220409683" /><vType id="vType_car_2.597366921172731" accel="1.0" decel="5.0" sigma="0.0" length="4.5" maxSpeed="0.7214908114368698" /><vType id="vType_car_29.838155346681127" accel="1.0" decel="5.0" sigma="0.0" length="4.5" maxSpeed="8.288376485189202" /><vType id="vType_car_40.88097533062315" accel="1.0" decel="5.0" sigma="0.0" length="4.5" maxSpeed="11.355826480728654" /><vType id="vType_car_19.31449605451066" accel="1.0" decel="5.0" sigma="0.0" length="4.5" maxSpeed="5.365137792919628" /><vType id="vType_car_11.659726529809065" accel="1.0" decel="5.0" sigma="0.0" length="4.5" maxSpeed="3.2388129249469624" /><vType id="vType_car_1.8443930973973446" accel="1.0" decel="5.0" sigma="0.0" length="4.5" maxSpeed="0.5123314159437068" /><vType id="vType_car_30.944970726942028" accel="1.0" decel="5.0" sigma="0.0" length="4.5" maxSpeed="8.59582520192834" /><vType id="vType_car_15.104088308065675" accel="1.0" decel="5.0" sigma="0.0" length="4.5" maxSpeed="4.195580085573798" /><vType id="vType_car_12.73908722534554" accel="1.0" decel="5.0" sigma="0.0" length="4.5" maxSpeed="3.538635340373761" /><vType id="vType_car_1.2251979371968906" accel="1.0" decel="5.0" sigma="0.0" length="4.5" maxSpeed="0.3403327603324696" /><vType id="vType_car_2.4784032246276815" accel="1.0" decel="5.0" sigma="0.0" length="4.5" maxSpeed="0.688445340174356" /><vType id="vType_car_9.60663638933308" accel="1.0" decel="5.0" sigma="0.0" length="4.5" maxSpeed="2.6685101081480775" /><vType id="vType_car_2.7665896460960164" accel="1.0" decel="5.0" sigma="0.0" length="4.5" maxSpeed="0.7684971239155601" /><vType id="vType_car_3.1124133518580184" accel="1.0" decel="5.0" sigma="0.0" length="4.5" maxSpeed="0.8645592644050051" /><vType id="vType_car_3.277352892607604" accel="1.0" decel="5.0" sigma="0.0" length="4.5" maxSpeed="0.9103758035021121" /><vType id="vType_car_3.7123613092236902" accel="1.0" decel="5.0" sigma="0.0" length="4.5" maxSpeed="1.0312114747843584" /><vType id="vType_car_1.5379518859109529" accel="1.0" decel="5.0" sigma="0.0" length="4.5" maxSpeed="0.4272088571974869" /><vType id="vType_car_7.6379686309199375" accel="1.0" decel="5.0" sigma="0.0" length="4.5" maxSpeed="2.1216579530333157" /><vType id="vType_car_43.76131833422491" accel="1.0" decel="5.0" sigma="0.0" length="4.5" maxSpeed="12.155921759506919" /><vType id="vType_car_21.33274385230044" accel="1.0" decel="5.0" sigma="0.0" length="4.5" maxSpeed="5.925762181194567" /><vType id="vType_car_3.0078057248249292" accel="1.0" decel="5.0" sigma="0.0" length="4.5" maxSpeed="0.8355015902291469" /><vType id="vType_car_4.728883115041395" accel="1.0" decel="5.0" sigma="0.0" length="4.5" maxSpeed="1.3135786430670542" /><vType id="vType_car_2.870271664189968" accel="1.0" decel="5.0" sigma="0.0" length="4.5" maxSpeed="0.7972976844972134" /><vType id="vType_car_17.141494812263474" accel="1.0" decel="5.0" sigma="0.0" length="4.5" maxSpeed="4.761526336739854" /><vType id="vType_car_24.635220756149366" accel="1.0" decel="5.0" sigma="0.0" length="4.5" maxSpeed="6.843116876708157" /><vType id="vType_car_4.033934356172684" accel="1.0" decel="5.0" sigma="0.0" length="4.5" maxSpeed="1.1205373211590788" /><vType id="vType_car_3.042384690782262" accel="1.0" decel="5.0" sigma="0.0" length="4.5" maxSpeed="0.8451068585506283" /><vType id="vType_car_2.687486089449413" accel="1.0" decel="5.0" sigma="0.0" length="4.5" maxSpeed="0.7465239137359481" /><vType id="vType_car_12.665072404027978" accel="1.0" decel="5.0" sigma="0.0" length="4.5" maxSpeed="3.518075667785549" /><vType id="vType_car_2.787053198826976" accel="1.0" decel="5.0" sigma="0.0" length="4.5" maxSpeed="0.7741814441186045" /><vType id="vType_car_2.8065649584076637" accel="1.0" decel="5.0" sigma="0.0" length="4.5" maxSpeed="0.7796013773354621" /><vType id="vType_car_31.010961493940766" accel="1.0" decel="5.0" sigma="0.0" length="4.5" maxSpeed="8.614155970539102" /><vType id="vType_car_2.708141072951448" accel="1.0" decel="5.0" sigma="0.0" length="4.5" maxSpeed="0.75226140915318" /><vType id="vType_car_2.9194956369570355" accel="1.0" decel="5.0" sigma="0.0" length="4.5" maxSpeed="0.8109710102658432" /><vType id="vType_car_25.530549779968936" accel="1.0" decel="5.0" sigma="0.0" length="4.5" maxSpeed="7.0918193833247045" /><vType id="vType_car_7.1389806011223795" accel="1.0" decel="5.0" sigma="0.0" length="4.5" maxSpeed="1.9830501669784386" /><vType id="vType_car_7.678435446976872" accel="1.0" decel="5.0" sigma="0.0" length="4.5" maxSpeed="2.132898735271353" /><vType id="vType_car_38.22953222892472" accel="1.0" decel="5.0" sigma="0.0" length="4.5" maxSpeed="10.619314508034643" /><vType id="vType_car_38.14318710491066" accel="1.0" decel="5.0" sigma="0.0" length="4.5" maxSpeed="10.595329751364071" /><vType id="vType_car_57.93128626527503" accel="1.0" decel="5.0" sigma="0.0" length="4.5" maxSpeed="16.092023962576395" /><vType id="vType_car_2.674369991226149" accel="1.0" decel="5.0" sigma="0.0" length="4.5" maxSpeed="0.7428805531183748" /><vType id="vType_car_3.5817356737353734" accel="1.0" decel="5.0" sigma="0.0" length="4.5" maxSpeed="0.9949265760376037" /><vType id="vType_car_2.6452685685401742" accel="1.0" decel="5.0" sigma="0.0" length="4.5" maxSpeed="0.7347968245944928" /><vType id="vType_car_5.876816962625092" accel="1.0" decel="5.0" sigma="0.0" length="4.5" maxSpeed="1.6324491562847478" /><vType id="vType_car_14.633502940744043" accel="1.0" decel="5.0" sigma="0.0" length="4.5" maxSpeed="4.064861927984456" /><vType id="vType_car_7.094113594740732" accel="1.0" decel="5.0" sigma="0.0" length="4.5" maxSpeed="1.9705871096502035" /><vType id="vType_car_2.68078113690711" accel="1.0" decel="5.0" sigma="0.0" length="4.5" maxSpeed="0.7446614269186417" /><vType id="vType_car_12.994348746892255" accel="1.0" decel="5.0" sigma="0.0" length="4.5" maxSpeed="3.609541318581182" /><vType id="vType_car_8.746823040605914" accel="1.0" decel="5.0" sigma="0.0" length="4.5" maxSpeed="2.429673066834976" /><vType id="vType_car_8.127886829297982" accel="1.0" decel="5.0" sigma="0.0" length="4.5" maxSpeed="2.2577463414716616" /><vType id="vType_car_8.183744345274999" accel="1.0" decel="5.0" sigma="0.0" length="4.5" maxSpeed="2.2732623181319442" /><vType id="vType_car_10.456337265816208" accel="1.0" decel="5.0" sigma="0.0" length="4.5" maxSpeed="2.904538129393391" /><vType id="vType_car_9.679015104209137" accel="1.0" decel="5.0" sigma="0.0" length="4.5" maxSpeed="2.6886153067247602" /><vType id="vType_car_18.558847543553338" accel="1.0" decel="5.0" sigma="0.0" length="4.5" maxSpeed="5.155235428764816" /><vType id="vType_car_41.93574238344355" accel="1.0" decel="5.0" sigma="0.0" length="4.5" maxSpeed="11.648817328734319" /><vType id="vType_car_2.9748835437653285" accel="1.0" decel="5.0" sigma="0.0" length="4.5" maxSpeed="0.8263565399348134" /><vType id="vType_car_10.174415010687415" accel="1.0" decel="5.0" sigma="0.0" length="4.5" maxSpeed="2.8262263918576154" /><vType id="vType_car_9.64895218883051" accel="1.0" decel="5.0" sigma="0.0" length="4.5" maxSpeed="2.680264496897364" /><vType id="vType_car_53.62369082629405" accel="1.0" decel="5.0" sigma="0.0" length="4.5" maxSpeed="14.89546967397057" /><vType id="vType_car_0.13832948230480085" accel="1.0" decel="5.0" sigma="0.0" length="4.5" maxSpeed="0.03842485619577801" /><vType id="vType_truck_5.436133609458569" accel="1.0" decel="5.0" sigma="0.0" length="8" maxSpeed="1.5100371137384914" /><vType id="vType_car_6.107933280883211" accel="1.0" decel="5.0" sigma="0.0" length="4.5" maxSpeed="1.6966481335786696" /><vType id="vType_car_33.50260235317256" accel="1.0" decel="5.0" sigma="0.0" length="4.5" maxSpeed="9.306278431436823" /><vType id="vType_car_2.6440182283398954" accel="1.0" decel="5.0" sigma="0.0" length="4.5" maxSpeed="0.7344495078721932" /><vType id="vType_car_8.08068167084237" accel="1.0" decel="5.0" sigma="0.0" length="4.5" maxSpeed="2.244633797456214" /><vType id="vType_car_43.046206340387656" accel="1.0" decel="5.0" sigma="0.0" length="4.5" maxSpeed="11.957279538996572" /><vType id="vType_car_18.783083770226455" accel="1.0" decel="5.0" sigma="0.0" length="4.5" maxSpeed="5.217523269507349" /><vType id="vType_car_9.347612112271463" accel="1.0" decel="5.0" sigma="0.0" length="4.5" maxSpeed="2.5965589200754065" /><vType id="vType_car_10.389671564364273" accel="1.0" decel="5.0" sigma="0.0" length="4.5" maxSpeed="2.8860198789900755" /><vType id="vType_car_3.3395691225629927" accel="1.0" decel="5.0" sigma="0.0" length="4.5" maxSpeed="0.9276580896008313" /><vType id="vType_car_62.288770776762576" accel="1.0" decel="5.0" sigma="0.0" length="4.5" maxSpeed="17.302436326878492" /><vType id="vType_car_7.873777583961858" accel="1.0" decel="5.0" sigma="0.0" length="4.5" maxSpeed="2.187160439989405" /><vType id="vType_car_6.100832238223228" accel="1.0" decel="5.0" sigma="0.0" length="4.5" maxSpeed="1.6946756217286745" /><vType id="vType_truck_5.577072302947763" accel="1.0" decel="5.0" sigma="0.0" length="8" maxSpeed="1.549186750818823" /><vType id="vType_car_6.283384587192804" accel="1.0" decel="5