<?xml version="1.0" encoding="utf-8"?>
<routes>
	<vType id="vType_car_20.945776671074867" accel="1.0" decel="5.0" sigma="0.0" length="4.5" maxSpeed="5.818271297520797" />
	<vType id="vType_car_21.715403729380423" accel="1.0" decel="5.0" sigma="0.0" length="4.5" maxSpeed="6.032056591494562" />
	<vType id="vType_car_42.353811736753364" accel="1.0" decel="5.0" sigma="0.0" length="4.5" maxSpeed="11.764947704653713" />
	<vType id="vType_car_32.00867273259105" accel="1.0" decel="5.0" sigma="0.0" length="4.5" maxSpeed="8.891297981275292" />
	<vType id="vType_car_5.75126639427306" accel="1.0" decel="5.0" sigma="0.0" length="4.5" maxSpeed="1.5975739984091832" />
	<vType id="vType_car_16.486343740510332" accel="1.0" decel="5.0" sigma="0.0" length="4.5" maxSpeed="4.579539927919536" />
	<vType id="vType_car_4.776243621720529" accel="1.0" decel="5.0" sigma="0.0" length="4.5" maxSpeed="1.3267343393668136" />
	<vType id="vType_car_4.536261805091252" accel="1.0" decel="5.0" sigma="0.0" length="4.5" maxSpeed="1.2600727236364588" />
	<vType id="vType_car_14.732049395157995" accel="1.0" decel="5.0" sigma="0.0" length="4.5" maxSpeed="4.092235943099443" />
	<vType id="vType_car_18.777653563277763" accel="1.0" decel="5.0" sigma="0.0" length="4.5" maxSpeed="5.216014878688267" />
	<vType id="vType_car_24.38545154270174" accel="1.0" decel="5.0" sigma="0.0" length="4.5" maxSpeed="6.773736539639373" />
	<vType id="vType_car_22.38604352233881" accel="1.0" decel="5.0" sigma="0.0" length="4.5" maxSpeed="6.2183454228718915" />
	<vType id="vType_car_23.75907268055274" accel="1.0" decel="5.0" sigma="0.0" length="4.5" maxSpeed="6.59974241126465" />
	<vType id="vType_car_25.729384569686463" accel="1.0" decel="5.0" sigma="0.0" length="4.5" maxSpeed="7.147051269357351" />
	<vType id="vType_car_30.462474088051234" accel="1.0" decel="5.0" sigma="0.0" length="4.5" maxSpeed="8.46179835779201" />
	<vType id="vType_car_4.201529606995213" accel="1.0" decel="5.0" sigma="0.0" length="4.5" maxSpeed="1.1670915574986702" />
	<vType id="vType_car_23.45486849215839" accel="1.0" decel="5.0" sigma="0.0" length="4.5" maxSpeed="6.515241247821775" />
	<vType id="vType_car_24.10220533989853" accel="1.0" decel="5.0" sigma="0.0" length="4.5" maxSpeed="6.6950570388607025" />
	<vType id="vType_car_4.3070807165074125" accel="1.0" decel="5.0" sigma="0.0" length="4.5" maxSpeed="1.196411310140948" />
	<vType id="vType_car_9.569842797530038" accel="1.0" decel="5.0" sigma="0.0" length="4.5" maxSpeed="2.658289665980566" />
	<vType id="vType_car_13.730711994934163" accel="1.0" decel="5.0" sigma="0.0" length="4.5" maxSpeed="3.81408666525949" />
	<vType id="vType_car_5.218437830817732" accel="1.0" decel="5.0" sigma="0.0" length="4.5" maxSpeed="1.4495660641160366" />
	<vType id="vType_car_12.059415404484675" accel="1.0" decel="5.0" sigma="0.0" length="4.5" maxSpeed="3.349837612356854" />
	<vType id="vType_car_40.08065860602806" accel="1.0" decel="5.0" sigma="0.0" length="4.5" maxSpeed="11.13351627945224" />
	<vType id="vType_car_4.9209211156217165" accel="1.0" decel="5.0" sigma="0.0" length="4.5" maxSpeed="1.3669225321171434" />
	<vType id="vType_car_8.461046462161478" accel="1.0" decel="5.0" sigma="0.0" length="4.5" maxSpeed="2.350290683933744" />
	<vType id="vType_car_64.5583375449054" accel="1.0" decel="5.0" sigma="0.0" length="4.5" maxSpeed="17.9328715402515" />
	<vType id="vType_car_5.3110327151635754" accel="1.0" decel="5.0" sigma="0.0" length="4.5" maxSpeed="1.4752868653232154" />
	<vType id="vType_car_4.820874581466667" accel="1.0" decel="5.0" sigma="0.0" length="4.5" maxSpeed="1.3391318281851852" />
	<vType id="vType_car_17.61121155949074" accel="1.0" decel="5.0" sigma="0.0" length="4.5" maxSpeed="4.8920032109696505" />
	<vType id="vType_car_14.428623473853362" accel="1.0" decel="5.0" sigma="0.0" length="4.5" maxSpeed="4.007950964959267" />
	<vType id="vType_car_20.48590616073031" accel="1.0" decel="5.0" sigma="0.0" length="4.5" maxSpeed="5.690529489091753" />
	<vType id="vType_car_15.279224269752337" accel="1.0" decel="5.0" sigma="0.0" length="4.5" maxSpeed="4.244228963820094" />
	<vType id="vType_car_5.015088295473412" accel="1.0" decel="5.0" sigma="0.0" length="4.5" maxSpeed="1.393080082075948" />
	<vType id="vType_car_25.223333613150604" accel="1.0" decel="5.0" sigma="0.0" length="4.5" maxSpeed="7.006481559208501" />
	<vType id="vType_car_19.180314601381312" accel="1.0" decel="5.0" sigma="0.0" length="4.5" maxSpeed="5.327865167050365" />
	<vType id="vType_car_29.066765483260266" accel="1.0" decel="5.0" sigma="0.0" length="4.5" maxSpeed="8.074101523127851" />
	<vType id="vType_car_21.56913204637689" accel="1.0" decel="5.0" sigma="0.0" length="4.5" maxSpeed="5.991425568438025" />
	<vType id="vType_truck_22.175209610122803" accel="1.0" decel="5.0" sigma="0.0" length="8" maxSpeed="6.159780447256334" />
	<vType id="vType_car_52.431085836820415" accel="1.0" decel="5.0" sigma="0.0" length="4.5" maxSpeed="14.564190510227892" />
	<vType id="vType_car_34.45660233247068" accel="1.0" decel="5.0" sigma="0.0" length="4.5" maxSpeed="9.5712784256863" />
	<vType id="vType_car_12.961280592138086" accel="1.0" decel="5.0" sigma="0.0" length="4.5" maxSpeed="3.6003557200383574" />
	<vType id="vType_car_59.488764052059274" accel="1.0" decel="5.0" sigma="0.0" length="4.5" maxSpeed="16.524656681127574" />
    <vType id="vType_car_18.500886657557896" accel="1.0" decel="5.0" sigma="0.0" length="4.5" maxSpeed="5.139135182654971" />
	<vType id="vType_car_55.90982808584698" accel="1.0" decel="5.0" sigma="0.0" length="4.5" maxSpeed="15.530507801624161" />
	<vType id="vType_car_41.46556054594615" accel="1.0" decel="5.0" sigma="0.0" length="4.5" maxSpeed="11.518211262762819" />
	<vType id="vType_car_14.149008590588194" accel="1.0" decel="5.0" sigma="0.0" length="4.5" maxSpeed="3.930280164052276" />
	<vType id="vType_car_23.142128373686997" accel="1.0" decel="5.0" sigma="0.0" length="4.5" maxSpeed="6.4283689926908325" />
	<vType id="vType_car_36.87643938619963" accel="1.0" decel="5.0" sigma="0.0" length="4.5" maxSpeed="10.243455385055452" />
	<vType id="vType_car_16.93550679329459" accel="1.0" decel="5.0" sigma="0.0" length="4.5" maxSpeed="4.70430744258183" />
	<vType id="vType_car_16.85446231217499" accel="1.0" decel="5.0" sigma="0.0" length="4.5" maxSpeed="4.681795086715275" />
	<vType id="vType_car_5.100794714394528" accel="1.0" decel="5.0" sigma="0.0" length="4.5" maxSpeed="1.4168874206651467" />
	<vType id="vType_car_21.384199765266526" accel="1.0" decel="5.0" sigma="0.0" length="4.5" maxSpeed="5.940055490351813" />
	<vType id="vType_car_5.2362974060020395" accel="1.0" decel="5.0" sigma="0.0" length="4.5" maxSpeed="1.4545270572227886" />
	<vType id="vType_truck_4.610629527542765" accel="1.0" decel="5.0" sigma="0.0" length="8" maxSpeed="1.280730424317435" />
	<vType id="vType_car_26.576802206622588" accel="1.0" decel="5.0" sigma="0.0" length="4.5" maxSpeed="7.382445057395163" />
	<vType id="vType_car_28.111213774593278" accel="1.0" decel="5.0" sigma="0.0" length="4.5" maxSpeed="7.808670492942577" />
	<vType id="vType_car_25.04206331268198" accel="1.0" decel="5.0" sigma="0.0" length="4.5" maxSpeed="6.956128697967216" />
	<vType id="vType_car_27.999642342715603" accel="1.0" decel="5.0" sigma="0.0" length="4.5" maxSpeed="7.777678428532112" />
	<vType id="vType_car_13.794927049360606" accel="1.0" decel="5.0" sigma="0.0" length="4.5" maxSpeed="3.831924180377946" />
	<vType id="vType_car_18.341228697024093" accel="1.0" decel="5.0" sigma="0.0" length="4.5" maxSpeed="5.094785749173359" />
	<vType id="vType_car_15.378176519305166" accel="1.0" decel="5.0" sigma="0.0" length="4.5" maxSpeed="4.2717156998069905" />
    <vType id="vType_car_32.34308803477217" accel="1.0" decel="5.0" sigma="0.0" length="4.5" maxSpeed="8.984191120770047" />
	<vType id="vType_car_39.64754566398281" accel="1.0" decel="5.0" sigma="0.0" length="4.5" maxSpeed="11.013207128884114" />
	<vType id="vType_car_29.889132266552682" accel="1.0" decel="5.0" sigma="0.0" length="4.5" maxSpeed="8.302536740709078" />
	<vType id="vType_car_23.29939662225594" accel="1.0" decel="5.0" sigma="0.0" length="4.5" maxSpeed="6.472054617293317" />
	<vType id="vType_car_56.3467513303924" accel="1.0" decel="5.0" sigma="0.0" length="4.5" maxSpeed="15.651875369553444" />
	<vType id="vType_car_27.65020902102582" accel="1.0" decel="5.0" sigma="0.0" length="4.5" maxSpeed="7.680613616951616" />
	<vType id="vType_car_32.19476700538581" accel="1.0" decel="5.0" sigma="0.0" length="4.5" maxSpeed="8.942990834829393" />
	<vType id="vType_car_24.81492049127026" accel="1.0" decel="5.0" sigma="0.0" length="4.5" maxSpeed="6.893033469797294" />
	<vType id="vType_car_9.720194692437053" accel="1.0" decel="5.0" sigma="0.0" length="4.5" maxSpeed="2.7000540812325147" />
	<vType id="vType_car_26.90509155768297" accel="1.0" decel="5.0" sigma="0.0" length="4.5" maxSpeed="7.473636543800825" />
	<vType id="vType_car_3.9068927197953407" accel="1.0" decel="5.0" sigma="0.0" length="4.5" maxSpeed="1.0852479777209278" />
	<vType id="vType_car_44.056464006512606" accel="1.0" decel="5.0" sigma="0.0" length="4.5" maxSpeed="12.237906668475723" />
	<vType id="vType_car_15.975615884604823" accel="1.0" decel="5.0" sigma="0.0" length="4.5" maxSpeed="4.437671079056895" />
	<vType id="vType_car_9.923247102950363" accel="1.0" decel="5.0" sigma="0.0" length="4.5" maxSpeed="2.756457528597323" />
	<vType id="vType_car_23.70852955279062" accel="1.0" decel="5.0" sigma="0.0" length="4.5" maxSpeed="6.58570265355295" />
	<vType id="vType_car_5.160481956255589" accel="1.0" decel="5.0" sigma="0.0" length="4.5" maxSpeed="1.433467210070997" />
	<vType id="vType_car_4.266424931476071" accel="1.0" decel="5.0" sigma="0.0" length="4.5" maxSpeed="1.185118036521131" />
	<vType id="vType_car_3.5595930049419393" accel="1.0" decel="5.0" sigma="0.0" length="4.5" maxSpeed="0.9887758347060942" />
	<vType id="vType_car_25.464863430291743" accel="1.0" decel="5.0" sigma="0.0" length="4.5" maxSpeed="7.073573175081039" />
	<vType id="vType_car_52.29770111601435" accel="1.0" decel="5.0" sigma="0.0" length="4.5" maxSpeed="14.527139198892876" />
	<vType id="vType_car_30.470998625621117" accel="1.0" decel="5.0" sigma="0.0" length="4.5" maxSpeed="8.464166284894755" />
	<vType id="vType_car_28.347092466392247" accel="1.0" decel="5.0" sigma="0.0" length="4.5" maxSpeed="7.8741923517756245" />
	<vType id="vType_car_6.016216632867902" accel="1.0" decel="5.0" sigma="0.0" length="4.5" maxSpeed="1.6711712869077506" />
	<vType id="vType_car_60.03878508741793" accel="1.0" decel="5.0" sigma="0.0" length="4.5" maxSpeed="16.677440302060536" />
	<vType id="vType_car_26.71047903260089" accel="1.0" decel="5.0" sigma="0.0" length="4.5" maxSpeed="7.419577509055802" />
	<vType id="vType_car_42.51759781729158" accel="1.0" decel="5.0" sigma="0.0" length="4.5" maxSpeed="11.81044383813655" />
	<vType id="vType_bus_11.99587908033971" accel="1.0" decel="5.0" sigma="0.0" length="13" maxSpeed="3.3321886334276973" />
	<vType id="vType_car_19.815711048655707" accel="1.0" decel="5.0" sigma="0.0" length="4.5" maxSpeed="5.504364180182141" />
	<vType id="vType_car_12.569109478375921" accel="1.0" decel="5.0" sigma="0.0" length="4.5" maxSpeed="3.491419299548867" />
	<vType id="vType_car_23.81020976588663" accel="1.0" decel="5.0" sigma="0.0" length="4.5" maxSpeed="6.61394715719073" />
	<vType id="vType_car_24.082079129224173" accel="1.0" decel="5.0" sigma="0.0" length="4.5" maxSpeed="6.689466424784492" />
	<vType id="vType_truck_18.789811621438542" accel="1.0" decel="5.0" sigma="0.0" length="8" maxSpeed="5.219392117066262" />
	<vType id="vType_car_41.7847725328043" accel="1.0" decel="5.0" sigma="0.0" length="4.5" maxSpeed="11.606881259112305" />
	<vType id="vType_car_37.69771033442247" accel="1.0" decel="5.0" sigma="0.0" length="4.5" maxSpeed="10.471586204006242" />
	<vType id="vType_car_12.42238590612731" accel="1.0" decel="5.0" sigma="0.0" length="4.5" maxSpeed="3.4506627517020307" />
	<vType id="vType_car_11.299608027468853" accel="1.0" decel="5.0" sigma="0.0" length="4.5" maxSpeed="3.138780007630237" />
	<vType id="vType_car_7.5159246485754165" accel="1.0" decel="5.0" sigma="0.0" length="4.5" maxSpeed="2.0877568468265046" />
	<vType id="vType_car_49.81958170323527" accel="1.0" decel="5.0" sigma="0.0" length="4.5" maxSpeed="13.838772695343131" />
	<vType id="vType_car_15.321186671249222" accel="1.0" decel="5.0" sigma="0.0" length="4.5" maxSpeed="4.2558851864581175" />
	<vType id="vType_car_3.860394690429351" accel="1.0" decel="5.0" sigma="0.0" length="4.5" maxSpeed="1.0723318584525974" />
	<vType id="vType_car_43.6776007455536" accel="1.0" decel="5.0" sigma="0.0" length="4.5" maxSpeed="12.132666873764888" />
	<vType id="vType_car_19.575280791473872" accel="1.0" decel="5.0" sigma="0.0" length="4.5" maxSpeed="5.437577997631631" />
	<vType id="vType_car_53.63530382749367" accel="1.0" decel="5.0" sigma="0.0" length="4.5" maxSpeed="14.89869550763713" />
	<vType id="vType_car_17.226385965292618" accel="1.0" decel="5.0" sigma="0.0" length="4.5" maxSpeed="4.785107212581282" />
	<vType id="vType_truck_77.14081407098818" accel="1.0" decel="5.0" sigma="0.0" length="8" maxSpeed="21.428003908607828" />
	<vType id="vType_truck_72.08300784320664" accel="1.0" decel="5.0" sigma="0.0" length="8" maxSpeed="20.023057734224068" />
	<vType id="vType_car_19.571379986770882" accel="1.0" decel="5.0" sigma="0.0" length="4.5" maxSpeed="5.43649444076969" />
	<vType id="vType_truck_8.420425268459235" accel="1.0" decel="5.0" sigma="0.0" length="8" maxSpeed="2.3390070190164542" />
	<vType id="vType_car_19.586026815474245" accel="1.0" decel="5.0" sigma="0.0" length="4.5" maxSpeed="5.440563004298402" />
	<vType id="vType_car_24.382307165594696" accel="1.0" decel="5.0" sigma="0.0" length="4.5" maxSpeed="6.772863101554082" />
	<vType id="vType_car_3.84247156384719" accel="1.0" decel="5.0" sigma="0.0" length="4.5" maxSpeed="1.067353212179775" />
	<vType id="vType_car_10.377142895340821" accel="1.0" decel="5.0" sigma="0.0" length="4.5" maxSpeed="2.882539693150228" />
	<vType id="vType_car_4.14711206468948" accel="1.0" decel="5.0" sigma="0.0" length="4.5" maxSpeed="1.1519755735248556" />
	<vType id="vType_car_4.847366999188682" accel="1.0" decel="5.0" sigma="0.0" length="4.5" maxSpeed="1.3464908331079672" />
	<vType id="vType_car_19.70121819599991" accel="1.0" decel="5.0" sigma="0.0" length="4.5" maxSpeed="5.472560609999975" />
	<vType id="vType_car_9.239588247826369" accel="1.0" decel="5.0" sigma="0.0" length="4.5" maxSpeed="2.56655229106288" />
	<vType id="vType_car_12.57042528729465" accel="1.0" decel="5.0" sigma="0.0" length="4.5" maxSpeed="3.4917848020262916" />
	<vType id="vType_car_23.806152747784758" accel="1.0" decel="5.0" sigma="0.0" length="4.5" maxSpeed="6.612820207717988" />
	<vType id="vType_car_4.303242359530371" accel="1.0" decel="5.0" sigma="0.0" length="4.5" maxSpeed="1.1953450998695474" />
	<vType id="vType_car_22.056149695345656" accel="1.0" decel="5.0" sigma="0.0" length="4.5" maxSpeed="6.126708248707127" />
	<vType id="vType_car_19.729312855332203" accel="1.0" decel="5.0" sigma="0.0" length="4.5" maxSpeed="5.480364682036723" />
	<vType id="vType_car_26.232200822571528" accel="1.0" decel="5.0" sigma="0.0" length="4.5" maxSpeed="7.286722450714313" />
	<vType id="vType_car_15.73773486569653" accel="1.0" decel="5.0" sigma="0.0" length="4.5" maxSpeed="4.371593018249036" />
	<vType id="vType_car_34.74220556862297" accel="1.0" decel="5.0" sigma="0.0" length="4.5" maxSpeed="9.650612657950825" />
	<vType id="vType_car_4.578819430009872" accel="1.0" decel="5.0" sigma="0.0" length="4.5" maxSpeed="1.2718942861138534" />
	<vType id="vType_car_4.967632138978709" accel="1.0" decel="5.0" sigma="0.0" length="4.5" maxSpeed="1.3798978163829745" />
	<vType id="vType_car_4.935935336142587" accel="1.0" decel="5.0" sigma="0.0" length="4.5" maxSpeed="1.3710931489284965" />
	<vType id="vType_car_8.403059213990426" accel="1.0" decel="5.0" sigma="0.0" length="4.5" maxSpeed="2.3341831149973404" />
	<vType id="vType_car_10.792694904415962" accel="1.0" decel="5.0" sigma="0.0" length="4.5" maxSpeed="2.9979708067822117" />
	<vType id="vType_car_15.461180465761771" accel="1.0" decel="5.0" sigma="0.0" length="4.5" maxSpeed="4.294772351600492" />
	<vType id="vType_car_51.36788205171679" accel="1.0" decel="5.0" sigma="0.0" length="4.5" maxSpeed="14.268856125476885" />
	<vType id="vType_car_47.71132866785864" accel="1.0" decel="5.0" sigma="0.0" length="4.5" maxSpeed="13.253146852182955" />
	<vType id="vType_car_17.497454846042693" accel="1.0" decel="5.0" sigma="0.0" length="4.5" maxSpeed="4.860404123900748" />
	<vType id="vType_car_14.983720120457898" accel="1.0" decel="5.0" sigma="0.0" length="4.5" maxSpeed="4.162144477904971" />
	<vType id="vType_truck_23.452186065475782" accel="1.0" decel="5.0" sigma="0.0" length="8" maxSpeed="6.514496129298828" />
	<vType id="vType_car_39.755654759755146" accel="1.0" decel="5.0" sigma="0.0" length="4.5" maxSpeed="11.043237433265318" />
	<vType id="vType_car_24.37745235210145" accel="1.0" decel="5.0" sigma="0.0" length="4.5" maxSpeed="6.771514542250403" />
	<vType id="vType_car_26.52227205692532" accel="1.0" decel="5.0" sigma="0.0" length="4.5" maxSpeed="7.3672977935903665" />
	<vType id="vType_car_31.079722257924644" accel="1.0" decel="5.0" sigma="0.0" length="4.5" maxSpeed="8.633256182756845" />
	<vType id="vType_car_35.518806240310745" accel="1.0" decel="5.0" sigma="0.0" length="4.5" maxSpeed="9.866335066752985" />
	<vType id="vType_car_38.20795101740724" accel="1.0" decel="5.0" sigma="0.0" length="4.5" maxSpeed="10.613319727057567" />
	<vType id="vType_car_9.733262487077566" accel="1.0" decel="5.0" sigma="0.0" length="4.5" maxSpeed="2.7036840241882127" />
	<vType id="vType_car_4.399898926340982" accel="1.0" decel="5.0" sigma="0.0" length="4.5" maxSpeed="1.2221941462058283" />
	<vType id="vType_car_5.132194373788085" accel="1.0" decel="5.0" sigma="0.0" length="4.5" maxSpeed="1.425609548274468" />
	<vType id="vType_car_4.977774134480612" accel="1.0" decel="5.0" sigma="0.0" length="4.5" maxSpeed="1.3827150373557255" />
	<vType id="vType_car_56.262624659841435" accel="1.0" decel="5.0" sigma="0.0" length="4.5" maxSpeed="15.628506849955954" />
	<vType id="vType_car_4.499421032591452" accel="1.0" decel="5.0" sigma="0.0" length="4.5" maxSpeed="1.2498391757198477" />
	<vType id="vType_car_6.904625737237578" accel="1.0" decel="5.0" sigma="0.0" length="4.5" maxSpeed="1.917951593677105" />
	<vType id="vType_car_27.282440354389717" accel="1.0" decel="5.0" sigma="0.0" length="4.5" maxSpeed="7.5784556539971435" />
    <vType id="vType_car_48.23085476185526" accel="1.0" decel="5.0" sigma="0.0" length="4.5" maxSpeed="13.397459656070906" />
	<vType id="vType_car_24.886774727384573" accel="1.0" decel="5.0" sigma="0.0" length="4.5" maxSpeed="6.912992979829048" />
	<vType id="vType_car_8.787221499775553" accel="1.0" decel="5.0" sigma="0.0" length="4.5" maxSpeed="2.440894861048765" />
	<vType id="vType_car_22.248485656977437" accel="1.0" decel="5.0" sigma="0.0" length="4.5" maxSpeed="6.180134904715954" />
	<vType id="vType_car_4.683438502648957" accel="1.0" decel="5.0" sigma="0.0" length="4.5" maxSpeed="1.3009551396247103" />
	<vType id="vType_car_19.875864322747304" accel="1.0" decel="5.0" sigma="0.0" length="4.5" maxSpeed="5.521073422985363" />
	<vType id="vType_car_23.130814417667775" accel="1.0" decel="5.0" sigma="0.0" length="4.5" maxSpeed="6.425226227129937" />
	<vType id="vType_car_24.62016728862032" accel="1.0" decel="5.0" sigma="0.0" length="4.5" maxSpeed="6.8389353579500884" />
	<vType id="vType_car_2.1007648034976065" accel="1.0" decel="5.0" sigma="0.0" length="4.5" maxSpeed="0.5835457787493351" />
	<vType id="vType_car_20.656247668080262" accel="1.0" decel="5.0" sigma="0.0" length="4.5" maxSpeed="5.737846574466739" />
	<vType id="vType_car_5.030813946078735" accel="1.0" decel="5.0" sigma="0.0" length="4.5" maxSpeed="1.397448318355204" />
	<vType id="vType_car_21.32377810639368" accel="1.0" decel="5.0" sigma="0.0" length="4.5" maxSpeed="5.923271696220466" />
	<vType id="vType_car_19.779634754765624" accel="1.0" decel="5.0" sigma="0.0" length="4.5" maxSpeed="5.494342987434895" />
	<vType id="vType_car_4.7956949653591" accel="1.0" decel="5.0" sigma="0.0" length="4.5" maxSpeed="1.3321374903775278" />
	<vType id="vType_car_15.792490292435179" accel="1.0" decel="5.0" sigma="0.0" length="4.5" maxSpeed="4.386802859009772" />
	<vType id="vType_car_5.436044534322538" accel="1.0" decel="5.0" sigma="0.0" length="4.5" maxSpeed="1.5100123706451494" />
	<vType id="vType_car_24.085127224579253" accel="1.0" decel="5.0" sigma="0.0" length="4.5" maxSpeed="6.690313117938681" />
	<vType id="vType_car_36.263417732742994" accel="1.0" decel="5.0" sigma="0.0" length="4.5" maxSpeed="10.07317159242861" />
	<vType id="vType_car_13.812185473285712" accel="1.0" decel="5.0" sigma="0.0" length="4.5" maxSpeed="3.8367181870238087" />
	<vType id="vType_car_1.3665317542864392" accel="1.0" decel="5.0" sigma="0.0" length="4.5" maxSpeed="0.37959215396845536" />
	<vType id="vType_car_14.401159451099364" accel="1.0" decel="5.0" sigma="0.0" length="4.5" maxSpeed="4.000322069749823" />
	<vType id="vType_car_16.135837693905618" accel="1.0" decel="5.0" sigma="0.0" length="4.5" maxSpeed="4.482177137196005" />
	<vType id="vType_car_12.662992276793641" accel="1.0" decel="5.0" sigma="0.0" length="4.5" maxSpeed="3.5174978546649003" />
	<vType id="vType_car_14.079580381058156" accel="1.0" decel="5.0" sigma="0.0" length="4.5" maxSpeed="3.910994550293932" />
	<vType id="vType_car_40.47412244517605" accel="1.0" decel="5.0" sigma="0.0" length="4.5" maxSpeed="11.24281179032668" />
	<vType id="vType_car_15.343389765680522" accel="1.0" decel="5.0" sigma="0.0" length="4.5" maxSpeed="4.262052712689034" />
	<vType id="vType_car_14.232747385676843" accel="1.0" decel="5.0" sigma="0.0" length="4.5" maxSpeed="3.9535409404657895" />
	<vType id="vType_car_13.75298658286536" accel="1.0" decel="5.0" sigma="0.0" length="4.5" maxSpeed="3.820274050795933" />
	<vType id="vType_car_25.09090451380502" accel="1.0" decel="5.0" sigma="0.0" length="4.5" maxSpeed="6.969695698279173" />
	<vType id="vType_car_5.052640664526124" accel="1.0" decel="5.0" sigma="0.0" length="4.5" maxSpeed="1.403511295701701" />
	<vType id="vType_car_51.01069941921491" accel="1.0" decel="5.0" sigma="0.0" length="4.5" maxSpeed="14.169638727559697" />
	<vType id="vType_car_14.025889635194359" accel="1.0" decel="5.0" sigma="0.0" length="4.5" maxSpeed="3.8960804542206553" />
	<vType id="vType_car_45.39703024984832" accel="1.0" decel="5.0" sigma="0.0" length="4.5" maxSpeed="12.610286180513421" />
	<vType id="vType_car_42.24624815069293" accel="1.0" decel="5.0" sigma="0.0" length="4.5" maxSpeed="11.735068930748035" />
	<vType id="vType_car_43.61687667012119" accel="1.0" decel="5.0" sigma="0.0" length="4.5" maxSpeed="12.115799075033662" />
	<vType id="vType_car_5.665530968562762" accel="1.0" decel="5.0" sigma="0.0" length="4.5" maxSpeed="1.573758602378545" />
	<vType id="vType_car_35.11158147052485" accel="1.0" decel="5.0" sigma="0.0" length="4.5" maxSpeed="9.753217075145791" />
	<vType id="vType_truck_45.87530265430506" accel="1.0" decel="5.0" sigma="0.0" length="8" maxSpeed="12.74313962619585" />
	<vType id="vType_car_41.58585097367956" accel="1.0" decel="5.0" sigma="0.0" length="4.5" maxSpeed="11.551625270466545" />
	<vType id="vType_car_5.143474966615876" accel="1.0" decel="5.0" sigma="0.0" length="4.5" maxSpeed="1.4287430462821877" />
	<vType id="vType_car_6.599377089674763" accel="1.0" decel="5.0" sigma="0.0" length="4.5" maxSpeed="1.8331603026874341" />
	<vType id="vType_car_47.28382533536414" accel="1.0" decel="5.0" sigma="0.0" length="4.5" maxSpeed="13.13439592649004" />
	<vType id="vType_car_42.501805508183836" accel="1.0" decel="5.0" sigma="0.0" length="4.5" maxSpeed="11.806057085606621" />
	<vType id="vType_car_3.7579623242877083" accel="1.0" decel="5.0" sigma="0.0" length="4.5" maxSpeed="1.0438784234132523" />
	<vType id="vType_car_20.845292176477116" accel="1.0" decel="5.0" sigma="0.0" length="4.5" maxSpeed="5.79035893791031" />
	<vType id="vType_car_18.914127246188734" accel="1.0" decel="5.0" sigma="0.0" length="4.5" maxSpeed="5.253924235052426" />
	<vType id="vType_car_15.511820159628657" accel="1.0" decel="5.0" sigma="0.0" length="4.5" maxSpeed="4.308838933230183" />
	<vType id="vType_car_17.91659770294415" accel="1.0" decel="5.0" sigma="0.0" length="4.5" maxSpeed="4.976832695262264" />
	<vType id="vType_car_13.661149367636153" accel="1.0" decel="5.0" sigma="0.0" length="4.5" maxSpeed="3.7947637132322645" />
	<vType id="vType_car_30.85060416763291" accel="1.0" decel="5.0" sigma="0.0" length="4.5" maxSpeed="8.56961226878692" />
	<vType id="vType_car_24.89712488641394" accel="1.0" decel="5.0" sigma="0.0" length="4.5" maxSpeed="6.915868024003872" />
	<vType id="vType_car_6.190166631943335" accel="1.0" decel="5.0" sigma="0.0" length="4.5" maxSpeed="1.7194907310953707" />
	<vType id="vType_car_22.570770657301235" accel="1.0" decel="5.0" sigma="0.0" length="4.5" maxSpeed="6.269658515917009" />
	<vType id="vType_car_5.120881784942663" accel="1.0" decel="5.0" sigma="0.0" length="4.5" maxSpeed="1.422467162484073" />
	<vType id="vType_car_4.497448043547598" accel="1.0" decel="5.0" sigma="0.0" length="4.5" maxSpeed="1.249291123207666" />
	<vType id="vType_car_3.9658216911336024" accel="1.0" decel="5.0" sigma="0.0" length="4.5" maxSpeed="1.1016171364260006" />
	<vType id="vType_car_38.84426025205717" accel="1.0" decel="5.0" sigma="0.0" length="4.5" maxSpeed="10.790072292238102" />
	<vType id="vType_car_11.491469351537072" accel="1.0" decel="5.0" sigma="0.0" length="4.5" maxSpeed="3.192074819871409" />
	<vType id="vType_car_42.404727514161664" accel="1.0" decel="5.0" sigma="0.0" length="4.5" maxSpeed="11.779090976156018" />
	<vType id="vType_car_16.89170899500803" accel="1.0" decel="5.0" sigma="0.0" length="4.5" maxSpeed="4.692141387502231" />
	<vType id="vType_car_10.764854026757316" accel="1.0" decel="5.0" sigma="0.0" length="4.5" maxSpeed="2.99023722965481" />
	<vType id="vType_car_67.80279785875875" accel="1.0" decel="5.0" sigma="0.0" length="4.5" maxSpeed="18.834110516321875" />
	<vType id="vType_car_5.333535926910913" accel="1.0" decel="5.0" sigma="0.0" length="4.5" maxSpeed="1.4815377574752535" />
	<vType id="vType_car_16.51471693243366" accel="1.0" decel="5.0" sigma="0.0" length="4.5" maxSpeed="4.587421370120461" />
	<vType id="vType_car_22.799032989715826" accel="1.0" decel="5.0" sigma="0.0" length="4.5" maxSpeed="6.333064719365507" />
	<vType id="vType_car_5.314561285894796" accel="1.0" decel="5.0" sigma="0.0" length="4.5" maxSpeed="1.4762670238596656" />
	<vType id="vType_car_20.935376926433165" accel="1.0" decel="5.0" sigma="0.0" length="4.5" maxSpeed="5.815382479564768" />
	<vType id="vType_car_4.169979220597939" accel="1.0" decel="5.0" sigma="0.0" length="4.5" maxSpeed="1.1583275612772053" />
	<vType id="vType_car_5.9738373572423304" accel="1.0" decel="5.0" sigma="0.0" length="4.5" maxSpeed="1.6593992659006473" />
	<route id="route_north_to_east" edges="north_to_center center_to_east" />
	<route id="route_north_to_south" edges="north_to_center center_to_south" />
	<route id="route_north_to_west" edges="north_to_center center_to_west" />
	<route id="route_east_to_west" edges="east_to_center center_to_west" />
	<route id="route_east_to_south" edges="east_to_center center_to_south" />
	<route id="route_east_to_north" edges="east_to_center center_to_north" />
	<route id="route_south_to_west" edges="south_to_center center_to_west" />
	<route id="route_south_to_north" edges="south_to_center center_to_north" />
	<route id="route_south_to_east" edges="south_to_center center_to_east" />
	<route id="route_west_to_south" edges="west_to_center center_to_south" />
	<route id="route_west_to_north" edges="west_to_center center_to_north" />
	<route id="route_west_to_east" edges="west_to_center center_to_east" />
	<vehicle id="veh1" type="vType_car_20.945776671074867" route="route_south_to_north" depart="0.03" />
	<vehicle id="veh2" type="vType_car_21.715403729380423" route="route_east_to_south" depart="0.03" />
	<vehicle id="veh3" type="vType_car_42.353811736753364" route="route_east_to_west" depart="0.03" />
	<vehicle id="veh4" type="vType_car_32.00867273259105" route="route_east_to_west" depart="0.03" />
	<vehicle id="veh6" type="vType_car_16.486343740510332" route="route_north_to_south" depart="1.31" />
	<vehicle id="veh9" type="vType_car_14.732049395157995" route="route_west_to_east" depart="15.16" />
	<vehicle id="veh10" type="vType_car_18.777653563277763" route="route_west_to_east" depart="19.18" />
	<vehicle id="veh13" type="vType_car_24.38545154270174" route="route_west_to_north" depart="19.65" />
	<vehicle id="veh12" type="vType_car_22.38604352233881" route="route_west_to_east" depart="19.88" />
	<vehicle id="veh14" type="vType_car_23.75907268055274" route="route_west_to_east" depart="21.79" />
	<vehicle id="veh15" type="vType_car_25.729384569686463" route="route_west_to_north" depart="22.40" />
	<vehicle id="veh16" type="vType_car_30.462474088051234" route="route_west_to_east" depart="26.05" />
	<vehicle id="veh22" type="vType_car_23.45486849215839" route="route_east_to_west" depart="35.00" />
	<vehicle id="veh24" type="vType_car_24.10220533989853" route="route_east_to_west" depart="35.47" />
	<vehicle id="veh27" type="vType_car_13.730711994934163" route="route_east_to_south" depart="42.11" />
	<vehicle id="veh40" type="vType_car_17.61121155949074" route="route_north_to_south" depart="52.77" />
	<vehicle id="veh42" type="vType_car_14.428623473853362" route="route_north_to_west" depart="60.72" />
	<vehicle id="veh43" type="vType_car_20.48590616073031" route="route_west_to_east" depart="64.17" />
	<vehicle id="veh46" type="vType_car_15.279224269752337" route="route_west_to_north" depart="77.62" />