<?xml version='1.0' encoding='utf-8'?>
<routes><vType id="vType_car_17.93364371589037" accel="1.0" decel="5.0" sigma="0.0" length="4.5" maxSpeed="4.981567698858436" /><vType id="vType_car_20.69240870505126" accel="1.0" decel="5.0" sigma="0.0" length="4.5" maxSpeed="5.747891306958683" /><vType id="vType_car_18.5076530046208" accel="1.0" decel="5.0" sigma="0.0" length="4.5" maxSpeed="5.141014723505777" /><vType id="vType_car_6.555257620356205" accel="1.0" decel="5.0" sigma="0.0" length="4.5" maxSpeed="1.82090489454339" /><vType id="vType_car_29.935476156868447" accel="1.0" decel="5.0" sigma="0.0" length="4.5" maxSpeed="8.315410043574568" /><vType id="vType_car_45.91127140985405" accel="1.0" decel="5.0" sigma="0.0" length="4.5" maxSpeed="12.753130947181681" /><vType id="vType_car_3.2809944558882824" accel="1.0" decel="5.0" sigma="0.0" length="4.5" maxSpeed="0.9113873488578562" /><vType id="vType_car_27.05787531438424" accel="1.0" decel="5.0" sigma="0.0" length="4.5" maxSpeed="7.516076476217845" /><vType id="vType_car_18.929822404450427" accel="1.0" decel="5.0" sigma="0.0" length="4.5" maxSpeed="5.2582840012362295" /><vType id="vType_car_3.537578329927145" accel="1.0" decel="5.0" sigma="0.0" length="4.5" maxSpeed="0.9826606472019848" /><vType id="vType_car_5.351342188741056" accel="1.0" decel="5.0" sigma="0.0" length="4.5" maxSpeed="1.4864839413169602" /><vType id="vType_car_3.884962875851603" accel="1.0" decel="5.0" sigma="0.0" length="4.5" maxSpeed="1.079156354403223" /><vType id="vType_car_2.6869617690241956" accel="1.0" decel="5.0" sigma="0.0" length="4.5" maxSpeed="0.7463782691733877" /><vType id="vType_car_13.08817137472496" accel="1.0" decel="5.0" sigma="0.0" length="4.5" maxSpeed="3.635603159645822" /><vType id="vType_car_2.7432080977236315" accel="1.0" decel="5.0" sigma="0.0" length="4.5" maxSpeed="0.7620022493676754" /><vType id="vType_car_53.8734728094426" accel="1.0" decel="5.0" sigma="0.0" length="4.5" maxSpeed="14.9648535581785" /><vType id="vType_car_3.17877568279257" accel="1.0" decel="5.0" sigma="0.0" length="4.5" maxSpeed="0.8829932452201583" /><vType id="vType_car_22.900901623609034" accel="1.0" decel="5.0" sigma="0.0" length="4.5" maxSpeed="6.36136156211362" /><vType id="vType_car_7.499452463890101" accel="1.0" decel="5.0" sigma="0.0" length="4.5" maxSpeed="2.0831812399694725" /><vType id="vType_car_6.21995768787728" accel="1.0" decel="5.0" sigma="0.0" length="4.5" maxSpeed="1.7277660244103556" /><vType id="vType_car_3.65725363418714" accel="1.0" decel="5.0" sigma="0.0" length="4.5" maxSpeed="1.0159037872742056" /><vType id="vType_car_26.708716769014742" accel="1.0" decel="5.0" sigma="0.0" length="4.5" maxSpeed="7.419087991392984" /><vType id="vType_truck_14.632081600359392" accel="1.0" decel="5.0" sigma="0.0" length="8" maxSpeed="4.064467111210942" /><vType id="vType_car_8.402962718290658" accel="1.0" decel="5.0" sigma="0.0" length="4.5" maxSpeed="2.3341563106362937" /><vType id="vType_truck_14.760996470332255" accel="1.0" decel="5.0" sigma="0.0" length="8" maxSpeed="4.100276797314515" /><vType id="vType_car_4.007482947075591" accel="1.0" decel="5.0" sigma="0.0" length="4.5" maxSpeed="1.1131897075209973" /><vType id="vType_car_3.374588911448285" accel="1.0" decel="5.0" sigma="0.0" length="4.5" maxSpeed="0.9373858087356347" /><vType id="vType_car_7.265858706625973" accel="1.0" decel="5.0" sigma="0.0" length="4.5" maxSpeed="2.0182940851738813" /><vType id="vType_car_2.654192098096851" accel="1.0" decel="5.0" sigma="0.0" length="4.5" maxSpeed="0.7372755828046809" /><vType id="vType_car_29.065834412948526" accel="1.0" decel="5.0" sigma="0.0" length="4.5" maxSpeed="8.073842892485702" /><vType id="vType_car_34.92680163525178" accel="1.0" decel="5.0" sigma="0.0" length="4.5" maxSpeed="9.701889343125494" /><vType id="vType_car_18.45543495990173" accel="1.0" decel="5.0" sigma="0.0" length="4.5" maxSpeed="5.126509711083814" /><vType id="vType_car_12.596822163664376" accel="1.0" decel="5.0" sigma="0.0" length="4.5" maxSpeed="3.499117267684549" /><vType id="vType_car_13.118754553027864" accel="1.0" decel="5.0" sigma="0.0" length="4.5" maxSpeed="3.6440984869521844" /><vType id="vType_car_6.358107354768886" accel="1.0" decel="5.0" sigma="0.0" length="4.5" maxSpeed="1.766140931880246" /><vType id="vType_truck_10.704080659486815" accel="1.0" decel="5.0" sigma="0.0" length="8" maxSpeed="2.973355738746337" /><vType id="vType_bus_35.57785364980332" accel="1.0" decel="5.0" sigma="0.0" length="13" maxSpeed="9.882737124945367" /><vType id="vType_car_46.89738774907587" accel="1.0" decel="5.0" sigma="0.0" length="4.5" maxSpeed="13.027052152521074" /><vType id="vType_car_11.470589522479232" accel="1.0" decel="5.0" sigma="0.0" length="4.5" maxSpeed="3.1862748673553423" /><vType id="vType_car_25.288277357779187" accel="1.0" decel="5.0" sigma="0.0" length="4.5" maxSpeed="7.024521488271996" /><vType id="vType_car_7.046803209221634" accel="1.0" decel="5.0" sigma="0.0" length="4.5" maxSpeed="1.9574453358948984" /><vType id="vType_car_13.742384899173738" accel="1.0" decel="5.0" sigma="0.0" length="4.5" maxSpeed="3.8173291386593715" /><vType id="vType_car_3.9635426266706353" accel="1.0" decel="5.0" sigma="0.0" length="4.5" maxSpeed="1.1009840629640653" /><vType id="vType_truck_11.406941333594059" accel="1.0" decel="5.0" sigma="0.0" length="8" maxSpeed="3.1685948148872383" /><vType id="vType_car_10.875999411379324" accel="1.0" decel="5.0" sigma="0.0" length="4.5" maxSpeed="3.0211109476053677" /><vType id="vType_car_13.512720345874529" accel="1.0" decel="5.0" sigma="0.0" length="4.5" maxSpeed="3.7535334294095914" /><vType id="vType_truck_16.620339929856637" accel="1.0" decel="5.0" sigma="0.0" length="8" maxSpeed="4.616761091626843" /><vType id="vType_car_39.28066294574795" accel="1.0" decel="5.0" sigma="0.0" length="4.5" maxSpeed="10.911295262707764" /><vType id="vType_car_42.54332971343989" accel="1.0" decel="5.0" sigma="0.0" length="4.5" maxSpeed="11.817591587066635" /><vType id="vType_car_7.393627348975849" accel="1.0" decel="5.0" sigma="0.0" length="4.5" maxSpeed="2.0537853747155133" /><vType id="vType_car_4.944787774182478" accel="1.0" decel="5.0" sigma="0.0" length="4.5" maxSpeed="1.3735521594951328" /><vType id="vType_car_19.25131632938335" accel="1.0" decel="5.0" sigma="0.0" length="4.5" maxSpeed="5.347587869273153" /><vType id="vType_car_42.525744574172826" accel="1.0" decel="5.0" sigma="0.0" length="4.5" maxSpeed="11.812706826159118" /><vType id="vType_car_2.254073741758014" accel="1.0" decel="5.0" sigma="0.0" length="4.5" maxSpeed="0.6261315949327817" /><vType id="vType_car_4.378317562792913" accel="1.0" decel="5.0" sigma="0.0" length="4.5" maxSpeed="1.2161993229980312" /><vType id="vType_car_2.451068219144081" accel="1.0" decel="5.0" sigma="0.0" length="4.5" maxSpeed="0.680852283095578" /><vType id="vType_car_44.93510432071296" accel="1.0" decel="5.0" sigma="0.0" length="4.5" maxSpeed="12.481973422420266" /><vType id="vType_car_38.96332584655704" accel="1.0" decel="5.0" sigma="0.0" length="4.5" maxSpeed="10.823146068488066" /><vType id="vType_car_46.10697174575448" accel="1.0" decel="5.0" sigma="0.0" length="4.5" maxSpeed="12.807492151598465" /><vType id="vType_car_17.355381500719588" accel="1.0" decel="5.0" sigma="0.0" length="4.5" maxSpeed="4.820939305755441" /><vType id="vType_car_2.351723828726804" accel="1.0" decel="5.0" sigma="0.0" length="4.5" maxSpeed="0.6532566190907788" /><vType id="vType_car_4.178937958748807" accel="1.0" decel="5.0" sigma="0.0" length="4.5" maxSpeed="1.1608160996524464" /><vType id="vType_car_47.00001654207123" accel="1.0" decel="5.0" sigma="0.0" length="4.5" maxSpeed="13.05556015057534" /><vType id="vType_car_16.600957121023427" accel="1.0" decel="5.0" sigma="0.0" length="4.5" maxSpeed="4.611376978062063" /><vType id="vType_car_8.818829801947905" accel="1.0" decel="5.0" sigma="0.0" length="4.5" maxSpeed="2.449674944985529" /><vType id="vType_car_2.693667081004917" accel="1.0" decel="5.0" sigma="0.0" length="4.5" maxSpeed="0.7482408558346991" /><vType id="vType_car_50.39667455706726" accel="1.0" decel="5.0" sigma="0.0" length="4.5" maxSpeed="13.999076265852015" /><vType id="vType_car_25.138003618465994" accel="1.0" decel="5.0" sigma="0.0" length="4.5" maxSpeed="6.9827787829072205" /><vType id="vType_car_8.192768626908473" accel="1.0" decel="5.0" sigma="0.0" length="4.5" maxSpeed="2.2757690630301313" /><vType id="vType_car_6.741732118753889" accel="1.0" decel="5.0" sigma="0.0" length="4.5" maxSpeed="1.8727033663205248" /><vType id="vType_car_8.182243767321513" accel="1.0" decel="5.0" sigma="0.0" length="4.5" maxSpeed="2.2728454909226423" /><vType id="vType_car_2.766589646096017" accel="1.0" decel="5.0" sigma="0.0" length="4.5" maxSpeed="0.7684971239155602" /><vType id="vType_car_23.77998274304965" accel="1.0" decel="5.0" sigma="0.0" length="4.5" maxSpeed="6.605550761958236" /><vType id="vType_car_6.929124788074838" accel="1.0" decel="5.0" sigma="0.0" length="4.5" maxSpeed="1.924756885576344" /><vType id="vType_car_34.818396973863464" accel="1.0" decel="5.0" sigma="0.0" length="4.5" maxSpeed="9.671776937184296" /><vType id="vType_car_7.540308425904998" accel="1.0" decel="5.0" sigma="0.0" length="4.5" maxSpeed="2.094530118306944" /><vType id="vType_car_37.66007578944986" accel="1.0" decel="5.0" sigma="0.0" length="4.5" maxSpeed="10.461132163736073" /><vType id="vType_car_57.77567822268572" accel="1.0" decel="5.0" sigma="0.0" length="4.5" maxSpeed="16.048799506301588" /><vType id="vType_car_2.674369991226149" accel="1.0" decel="5.0" sigma="0.0" length="4.5" maxSpeed="0.7428805531183748" /><vType id="vType_car_11.678110811028656" accel="1.0" decel="5.0" sigma="0.0" length="4.5" maxSpeed="3.243919669730182" /><vType id="vType_car_2.6452685685401742" accel="1.0" decel="5.0" sigma="0.0" length="4.5" maxSpeed="0.7347968245944928" /><vType id="vType_car_5.876816962625092" accel="1.0" decel="5.0" sigma="0.0" length="4.5" maxSpeed="1.6324491562847478" /><vType id="vType_car_8.156079709232774" accel="1.0" decel="5.0" sigma="0.0" length="4.5" maxSpeed="2.2655776970091037" /><vType id="vType_car_7.094113594740732" accel="1.0" decel="5.0" sigma="0.0" length="4.5" maxSpeed="1.9705871096502035" /><vType id="vType_car_2.68078113690711" accel="1.0" decel="5.0" sigma="0.0" length="4.5" maxSpeed="0.7446614269186417" /><vType id="vType_car_12.994348746892255" accel="1.0" decel="5.0" sigma="0.0" length="4.5" maxSpeed="3.609541318581182" /><vType id="vType_car_8.746823040605914" accel="1.0" decel="5.0" sigma="0.0" length="4.5" maxSpeed="2.429673066834976" /><vType id="vType_car_8.127886829297982" accel="1.0" decel="5.0" sigma="0.0" length="4.5" maxSpeed="2.2577463414716616" /><vType id="vType_car_8.183744345274999" accel="1.0" decel="5.0" sigma="0.0" length="4.5" maxSpeed="2.2732623181319442" /><vType id="vType_car_10.456337265816208" accel="1.0" decel="5.0" sigma="0.0" length="4.5" maxSpeed="2.904538129393391" /><vType id="vType_car_9.679015104209137" accel="1.0" decel="5.0" sigma="0.0" length="4.5" maxSpeed="2.6886153067247602" /><vType id="vType_car_18.558847543553338" accel="1.0" decel="5.0" sigma="0.0" length="4.5" maxSpeed="5.155235428764816" /><vType id="vType_car_41.93574238344355" accel="1.0" decel="5.0" sigma="0.0" length="4.5" maxSpeed="11.648817328734319" /><vType id="vType_car_2.9748835437653285" accel="1.0" decel="5.0" sigma="0.0" length="4.5" maxSpeed="0.8263565399348134" /><vType id="vType_car_10.174415010687415" accel="1.0" decel="5.0" sigma="0.0" length="4.5" maxSpeed="2.8262263918576154" /><vType id="vType_car_9.64895218883051" accel="1.0" decel="5.0" sigma="0.0" length="4.5" maxSpeed="2.680264496897364" /><vType id="vType_car_53.62369082629405" accel="1.0" decel="5.0" sigma="0.0" length="4.5" maxSpeed="14.89546967397057" /><vType id="vType_car_0.13832948230480085" accel="1.0" decel="5.0" sigma="0.0" length="4.5" maxSpeed="0.03842485619577801" /><vType id="vType_truck_5.436133609458569" accel="1.0" decel="5.0" sigma="0.0" length="8" maxSpeed="1.5100371137384914" /><vType id="vType_car_6.107933280883211" accel="1.0" decel="5.0" sigma="0.0" length="4.5" maxSpeed="1.6966481335786696" /><vType id="vType_car_33.50260235317256" accel="1.0" decel="5.0" sigma="0.0" length="4.5" maxSpeed="9.306278431436823" /><vType id="vType_car_2.6440182283398954" accel="1.0" decel="5.0" sigma="0.0" length="4.5" maxSpeed="0.7344495078721932" /><vType id="vType_car_8.08068167084237" accel="1.0" decel="5.0" sigma="0.0" length="4.5" maxSpeed="2.244633797456214" /><vType id="vType_car_43.046206340387656" accel="1.0" decel="5.0" sigma="0.0" length="4.5" maxSpeed="11.957279538996572" /><vType id="vType_car_18.783083770226455" accel="1.0" decel="5.0" sigma="0.0" length="4.5" maxSpeed="5.217523269507349" /><vType id="vType_car_9.347612112271463" accel="1.0" decel="5.0" sigma="0.0" length="4.5" maxSpeed="2.5965589200754065" /><vType id="vType_car_10.389671564364273" accel="1.0" decel="5.0" sigma="0.0" length="4.5" maxSpeed="2.8860198789900755" /><vType id="vType_car_3.3395691225629927" accel="1.0" decel="5.0" sigma="0.0" length="4.5" maxSpeed="0.9276580896008313" /><vType id="vType_car_62.288770776762576" accel="1.0" decel="5.0" sigma="0.0" length="4.5" maxSpeed="17.302436326878492" /><vType id="vType_car_7.873777583961858" accel="1.0" decel="5.0" sigma="0.0" length="4.5" maxSpeed="2.187160439989405" /><vType id="vType_car_6.100832238223228" accel="1.0" decel="5.0" sigma="0.0" length="4.5" maxSpeed="1.6946756217286745" /><vType id="vType_truck_5.577072302947763" accel="1.0" decel="5.0" sigma="0.0" length="8" maxSpeed="1.549186750818823" /><vType id="vType_car_6.283384587192804" accel="1.0" decel="5.0" sigma="0.0" length="4.5" maxSpeed="1.7453846075535564" /><vType id="vType_car_40.69492978860179" accel="1.0" decel="5.0" sigma="0.0" length="4.5" maxSpeed="11.304147163500497" /><vType id="vType_car_21.04314301567974" accel="1.0" decel="5.0" sigma="0.0" length="4.5" maxSpeed="5.845317504355483" /><vType id="vType_car_2.759703679559759" accel="1.0" decel="5.0" sigma="0.0" length="4.5" maxSpeed="0.7665843554332664" /><vType id="vType_car_14.106894591547347" accel="1.0" decel="5.0" sigma="0.0" length="4.5" maxSpeed="3.918581830985374" /><vType id="vType_car_8.351371835435957" accel="1.0" decel="5.0" sigma="0.0" length="4.5" maxSpeed="2.3198255098433216" /><vType id="vType_car_8.579737407227647" accel="1.0" decel="5.0" sigma="0.0" length="4.5" maxSpeed="2.3832603908965684" /><vType id="vType_car_13.124476006804885" accel="1.0" decel="5.0" sigma="0.0" length="4.5" maxSpeed="3.6456877796680236" /><vType id="vType_car_9.124210678428836" accel="1.0" decel="5.0" sigma="0.0" length="4.5" maxSpeed="2.534502966230232" /><vType id="vType_car_7.823628381316726" accel="1.0" decel="5.0" sigma="0.0" length="4.5" maxSpeed="2.173230105921313" /><vType id="vType_car_8.264872040243347" accel="1.0" decel="5.0" sigma="0.0" length="4.5" maxSpeed="2.2957977889564853" /><vType id="vType_car_16.649488723427563" accel="1.0" decel="5.0" sigma="0.0" length="4.5" maxSpeed="4.624857978729879" /><vType id="vType_car_1.8991280573861278" accel="1.0" decel="5.0" sigma="0.0" length="4.5" maxSpeed="0.5275355714961466" /><vType id="vType_car_6.37109196315494" accel="1.0" decel="5.0" sigma="0.0" length="4.5" maxSpeed="1.7697477675430386" /><vType id="vType_car_27.924858229566404" accel="1.0" decel="5.0" sigma="0.0" length="4.5" maxSpeed="7.756905063768445" /><vType id="vType_car_3.5978463816932638" accel="1.0" decel="5.0" sigma="0.0" length="4.5" maxSpeed="0.9994017726925732" /><vType id="vType_car_1.9366127522672119" accel="1.0" decel="5.0" sigma="0.0" length="4.5" maxSpeed="0.5379479867408922" /><vType id="vType_car_22.30495881060015" accel="1.0" decel="5.0" sigma="0.0" length="4.5" maxSpeed="6.195821891833376" /><vType id="vType_car_35.07482217434854" accel="1.0" decel="5.0" sigma="0.0" length="4.5" maxSpeed="9.743006159541261" /><vType id="vType_car_21.412582665894373" accel="1.0" decel="5.0" sigma="0.0" length="4.5" maxSpeed="5.947939629415104" /><vType id="vType_car_10.647620788869999" accel="1.0" decel="5.0" sigma="0.0" length="4.5" maxSpeed="2.9576724413527775" /><vType id="vType_car_10.307108042970937" accel="1.0" decel="5.0" sigma="0.0" length="4.5" maxSpeed="2.8630855674919267" /><vType id="vType_car_48.05096315645866" accel="1.0" decel="5.0" sigma="0.0" length="4.5" maxSpeed="13.34748976568296" /><vType id="vType_car_1.8646004046747109" accel="1.0" decel="5.0" sigma="0.0" length="4.5" maxSpeed="0.5179445568540864" /><vType id="vType_car_5.86427690094993" accel="1.0" decel="5.0" sigma="0.0" length="4.5" maxSpeed="1.628965805819425" /><vType id="vType_car_47.82447672443558" accel="1.0" decel="5.0" sigma="0.0" length="4.5" maxSpeed="13.284576867898771" /><vType id="vType_car_3.1116120327539574" accel="1.0" decel="5.0" sigma="0.0" length="4.5" maxSpeed="0.8643366757649882" /><vType id="vType_car_48.047688925302154" accel="1.0" decel="5.0" sigma="0.0" length="4.5" maxSpeed="13.346580257028375" /><vType id="vType_car_2.0749422345720125" accel="1.0" decel="5.0" sigma="0.0" length="4.5" maxSpeed="0.5763728429366701" /><vType id="vType_truck_10.628727016255606" accel="1.0" decel="5.0" sigma="0.0" length="8" maxSpeed="2.9524241711821126" /><vType id="vType_car_8.747716167069601" accel="1.0" decel="5.0" sigma="0.0" length="4.5" maxSpeed="2.429921157519334" /><vType id="vType_car_12.074088732251328" accel="1.0" decel="5.0" sigma="0.0" length="4.5" maxSpeed="3.3539135367364796" /><vType id="vType_car_16.326353444394105" accel="1.0" decel="5.0" sigma="0.0" length="4.5" maxSpeed="4.535098178998362" /><vType id="vType_car_19.427231428376306" accel="1.0" decel="5.0" sigma="0.0" length="4.5" maxSpeed="5.396453174548974" /><vType id="vType_car_11.827211868861276" accel="1.0" decel="5.0" sigma="0.0" length="4.5" maxSpeed="3.2853366302392435" /><vType id="vType_car_17.168066513805908" accel="1.0" decel="5.0" sigma="0.0" length="4.5" maxSpeed="4.768907364946085" /><vType id="vType_car_16.526759796833144" accel="1.0" decel="5.0" sigma="0.0" length="4.5" maxSpeed="4.590766610231428" /><vType id="vType_car_3.3852178975477947" accel="1.0" decel="5.0" sigma="0.0" length="4.5" maxSpeed="0.9403383048743874" /><vType id="vType_car_11.427101512680425" accel="1.0" decel="5.0" sigma="0.0" length="4.5" maxSpeed="3.174194864633451" /><vType id="vType_car_4.098090750681675" accel="1.0" decel="5.0" sigma="0.0" length="4.5" maxSpeed="1.138358541856021" /><vType id="vType_car_19.803682291373747" accel="1.0" decel="5.0" sigma="0.0" length="4.5" maxSpeed="5.501022858714929" /><vType id="vType_car_12.369655191242057" accel="1.0" decel="5.0" sigma="0.0" length="4.5" maxSpeed="3.436015330900571" /><vType id="vType_car_18.915881652741803" accel="1.0" decel="5.0" sigma="0.0" length="4.5" maxSpeed="5.254411570206056" /><vType id="vType_car_4.399758638608049" accel="1.0" decel="5.0" sigma="0.0" length="4.5" maxSpeed="1.2221551773911248" /><vType id="vType_car_13.801050796307866" accel="1.0" decel="5.0" sigma="0.0" length="4.5" maxSpeed="3.8336252211966295" /><vType id="vType_car_4.9892021510891995" accel="1.0" decel="5.0" sigma="0.0" length="4.5" maxSpeed="1.3858894864136666" /><vType id="vType_car_20.992162826248574" accel="1.0" decel="5.0" sigma="0.0" length="4.5" maxSpeed="5.831156340624604" /><vType id="vType_car_2.937322450956116" accel="1.0" decel="5.0" sigma="0.0" length="4.5" maxSpeed="0.8159229030433656" /><vType id="vType_car_24.04977290376002" accel="1.0" decel="5.0" sigma="0.0" length="4.5" maxSpeed="6.680492473266671" /><vType id="vType_car_22.85452688041543" accel="1.0" decel="5.0" sigma="0.0" length="4.5" maxSpeed="6.348479689004286" /><vType id="vType_bus_16.361670467524565" accel="1.0" decel="5.0" sigma="0.0" length="13" maxSpeed="4.544908463201268" /><vType id="vType_car_23.35079583709649" accel="1.0" decel="5.0" sigma="0.0" length="4.5" maxSpeed="6.486332176971247" /><vType id="vType_car_34.441786669613805" accel="1.0" decel="5.0" sigma="0.0" length="4.5" maxSpeed="9.567162963781612" /><vType id="vType_car_26.890799499829736" accel="1.0" decel="5.0" sigma="0.0" length="4.5" maxSpeed="7.469666527730482" /><vType id="vType_car_14.676202521681565" accel="1.0" decel="5.0" sigma="0.0" length="4.5" maxSpeed="4.076722922689323" /><vType id="vType_car_18.352728354958373" accel="1.0" decel="5.0" sigma="0.0" length="4.5" maxSpeed="5.097980098599548" /><vType id="vType_car_23.22932256822239" accel="1.0" decel="5.0" sigma="0.0" length="4.5" maxSpeed="6.452589602283997" /><vType id="vType_car_10.372177445704516" accel="1.0" decel="5.0" sigma="0.0" length="4.5" maxSpeed="2.8811604015845877" /><vType id="vType_car_24.215921128335168" accel="1.0" decel="5.0" sigma="0.0" length="4.5" maxSpeed="6.72664475787088" /><vType id="vType_car_2.8559286974136024" accel="1.0" decel="5.0" sigma="0.0" length="4.5" maxSpeed="0.793313527059334" /><vType id="vType_car_25.484083548079866" accel="1.0" decel="5.0" sigma="0.0" length="4.5" maxSpeed="7.0789120966888515" /><vType id="vType_car_19.308300063841635" accel="1.0" decel="5.0" sigma="0.0" length="4.5" maxSpeed="5.3634166844004545" /><vType id="vType_car_30.492064933914534" accel="1.0" decel="5.0" sigma="0.0" length="4.5" maxSpeed="8.470018037198482" /><vType id="vType_car_26.476826617356274" accel="1.0" decel="5.0" sigma="0.0" length="4.5" maxSpeed="7.354674060376743" /><vType id="vType_car_2.1517919469635687" accel="1.0" decel="5.0" sigma="0.0" length="4.5" maxSpeed="0.5977199852676579" /><vType id="vType_car_14.447912017479393" accel="1.0" decel="5.0" sigma="0.0" length="4.5" maxSpeed="4.013308893744275" /><vType id="vType_car_2.670503606268347" accel="1.0" decel="5.0" sigma="0.0" length="4.5" maxSpeed="0.741806557296763" /><vType id="vType_car_29.840391787921476" accel="1.0" decel="5.0" sigma="0.0" length="4.5" maxSpeed="8.288997718867076" /><vType id="vType_car_12.614230447092563" accel="1.0" decel="5.0" sigma="0.0" length="4.5" maxSpeed="3.5039529019701563" /><vType id="vType_car_20.284637328305816" accel="1.0" decel="5.0" sigma="0.0" length="4.5" maxSpeed="5.634621480084949" /><vType id="vType_car_1.8443930973973446" accel="1.0" decel="5.0" sigma="0.0" length="4.5" maxSpeed="0.5123314159437068" /><vType id="vType_car_15.663079292625964" accel="1.0" decel="5.0" sigma="0.0" length="4.5" maxSpeed="4.350855359062768" /><vType id="vType_car_2.1261753761663833" accel="1.0" decel="5.0" sigma="0.0" length="4.5" maxSpeed="0.5906042711573287" /><vType id="vType_car_47.11718006127431" accel="1.0" decel="5.0" sigma="0.0" length="4.5" maxSpeed="13.088105572576197" /><vType id="vType_car_5.498607328307801" accel="1.0" decel="5.0" sigma="0.0" length="4.5" maxSpeed="1.5273909245299446" /><vType id="vType_car_20.293383285252315" accel="1.0" decel="5.0" sigma="0.0" length="4.5" maxSpeed="5.637050912570087" /><vType id="vType_car_15.594203514073065" accel="1.0" decel="5.0" sigma="0.0" length="4.5" maxSpeed="4.331723198353629" /><vType id="vType_car_2.9177322652499065" accel="1.0" decel="5.0" sigma="0.0" length="4.5" maxSpeed="0.8104811847916407" /><vType id="vType_car_4.11526154797769" accel="1.0" decel="5.0" sigma="0.0" length="4.5" maxSpeed="1.1431282077715805" /><vType id="vType_car_22.641913723118066" accel="1.0" decel="5.0" sigma="0.0" length="4.5" maxSpeed="6.2894204786439065" /><vType id="vType_car_4.011666259024551" accel="1.0" decel="5.0" sigma="0.0" length="4.5" maxSpeed="1.114351738617931" /><vType id="vType_car_6.11764186267697" accel="1.0" decel="5.0" sigma="0.0" length="4.5" maxSpeed="1.6993449618547138" /><vType id="vType_car_3.1393477601090516" accel="1.0" decel="5.0" sigma="0.0" length="4.5" maxSpeed="0.8720410444747365" /><vType id="vType_car_23.978296694156825" accel="1.0" decel="5.0" sigma="0.0" length="4.5" maxSpeed="6.660637970599118" /><vType id="vType_car_25.86065200769146" accel="1.0" decel="5.0" sigma="0.0" length="4.5" maxSpeed="7.183514446580961" /><vType id="vType_car_24.432208119279142" accel="1.0" decel="5.0" sigma="0.0" length="4.5" maxSpeed="6.78672447757754" /><vType id="vType_car_4.670206956904052" accel="1.0" decel="5.0" sigma="0.0" length="4.5" maxSpeed="1.2972797102511255" /><vType id="vType_car_2.389327421628378" accel="1.0" decel="5.0" sigma="0.0" length="4.5" maxSpeed="0.6637020615634384" /><vType id="vType_car_21.924209837259053" accel="1.0" decel="5.0" sigma="0.0" length="4.5" maxSpeed="6.090058288127515" /><vType id="vType_car_15.553994969471546" accel="1.0" decel="5.0" sigma="0.0" length="4.5" maxSpeed="4.320554158186541" /><vType id="vType_car_27.894441028209652" accel="1.0" decel="5.0" sigma="0.0" length="4.5" maxSpeed="7.748455841169347" /><vType id="vType_car_13.319204324614454" accel="1.0" decel="5.0" sigma="0.0" length="4.5" maxSpeed="3.6997789790595705" /><vType id="vType_car_10.483190520360223" accel="1.0" decel="5.0" sigma="0.0" length="4.5" maxSpeed="2.9119973667667285" /><vType id="vType_car_7.782180967189514" accel="1.0" decel="5.0" sigma="0.0" length="4.5" maxSpeed="2.1617169353304204" /><vType id="vType_car_4.878751575543042" accel="1.0" decel="5.0" sigma="0.0" length="4.5" maxSpeed="1.3552087709841782" /><vType id="vType_car_2.8593040676712063" accel="1.0" decel="5.0" sigma="0.0" length="4.5" maxSpeed="0.7942511299086684" /><vType id="vType_car_10.03256142974056" accel="1.0" decel="5.0" sigma="0.0" length="4.5" maxSpeed="2.7868226193723777" /><vType id="vType_car_7.063414368436244" accel="1.0" decel="5.0" sigma="0.0" length="4.5" maxSpeed="1.9620595467878454" /><vType id="vType_car_7.649495096318837" accel="1.0" decel="5.0" sigma="0.0" length="4.5" maxSpeed="2.1248597489774546" /><vType id="vType_car_3.6403163746812366" accel="1.0" decel="5.0" sigma="0.0" length="4.5" maxSpeed="1.0111989929670102" /><vType id="vType_car_12.160883081338481" accel="1.0" decel="5.0" sigma="0.0" length="4.5" maxSpeed="3.378023078149578" /><vType id="vType_car_3.688786194794689" accel="1.0" decel="5.0" sigma="0.0" length="4.5" maxSpeed="1.0246628318874136" /><vType id="vType_car_8.554074824105614" accel="1.0" decel="5.0" sigma="0.0" length="4.5" maxSpeed="2.376131895584893" /><vType id="vType_car_6.71338292842887" accel="1.0" decel="5.0" sigma="0.0" length="4.5" maxSpeed="1.8648285912302416" /><vType id="vType_car_4.035872611691035" accel="1.0" decel="5.0" sigma="0.0" length="4.5" maxSpeed="1.1210757254697319" /><vType id="vType_car_58.50546801892703" accel="1.0" decel="5.0" sigma="0.0" length="4.5" maxSpeed="16.251518894146397" /><vType id="vType_car_5.808722085848543" accel="1.0" decel="5.0" sigma="0.0" length="4.5" maxSpeed="1.6135339127357062" /><vType id="vType_car_28.186305624697702" accel="1.0" decel="5.0" sigma="0.0" length="4.5" maxSpeed="7.829529340193806" /><vType id="vType_car_34.56430927526475" accel="1.0" decel="5.0" sigma="0.0" length="4.5" maxSpeed="9.601197020906874" /><vType id="vType_car_39.73436632132389" accel="1.0" decel="5.0" sigma="0.0" length="4.5" maxSpeed="11.037323978145524" /><vType id="vType_car_10.471583002082038" accel="1.0" decel="5.0" sigma="0.0" length="4.5" maxSpeed="2.9087730561338994" /><vType id="vType_car_33.936037353702346" accel="1.0" decel="5.0" sigma="0.0" length="4.5" maxSpeed="9.426677042695095" /><vType id="vType_car_49.930451627590195" accel="1.0" decel="5.0" sigma="0.0" length="4.5" maxSpeed="13.869569896552832" /><vType id="vType_car_3.053079384329505" accel="1.0" decel="5.0" sigma="0.0" length="4.5" maxSpeed="0.8480776067581958" /><vType id="vType_car_40.818609919427146" accel="1.0" decel="5.0" sigma="0.0" length="4.5" maxSpeed="11.33850275539643" /><vType id="vType_car_37.125516621567016" accel="1.0" decel="5.0" sigma="0.0" length="4.5" maxSpeed="10.312643505990838" /><vType id="vType_car_9.550884135894501" accel="1.0" decel="5.0" sigma="0.0" length="4.5" maxSpeed="2.653023371081806" /><vType id="vType_car_1.8956262389917153" accel="1.0" decel="5.0" sigma="0.0" length="4.5" maxSpeed="0.5265628441643654" /><vType id="vType_car_39.3303585047111" accel="1.0" decel="5.0" sigma="0.0" length="4.5" maxSpeed="10.925099584641972" /><vType id="vType_car_33.248717801123824" accel="1.0" decel="5.0" sigma="0.0" length="4.5" maxSpeed="9.235754944756618" /><vType id="vType_car_32.32408166822506" accel="1.0" decel="5.0" sigma="0.0" length="4.5" maxSpeed="8.978911574506961" /><vType id="vType_car_30.84015840955356" accel="1.0" decel="5.0" sigma="0.0" length="4.5" maxSpeed="8.566710669320432" /><vType id="vType_car_3.8311997190899265" accel="1.0" decel="5.0" sigma="0.0" length="4.5" maxSpeed="1.0642221441916462" /><vType id="vType_car_5.50389791402879" accel="1.0" decel="5.0" sigma="0.0" length="4.5" maxSpeed="1.5288605316746637" /><vType id="vType_car_2.3272447983994513" accel="1.0" decel="5.0" sigma="0.0" length="4.5" maxSpeed="0.646456888444292" /><vType id="vType_car_1.862837028371318" accel="1.0" decel="5.0" sigma="0.0" length="4.5" maxSpeed="0.5174547301031439" /><vType id="vType_car_3.3372961237654803" accel="1.0" decel="5.0" sigma="0.0" length="4.5" maxSpeed="0.9270267010459667" /><vType id="vType_car_2.630813387248411" accel="1.0" decel="5.0" sigma="0.0" length="4.5" maxSpeed="0.7307814964578919" /><vType id="vType_bus_25.102037703780443" accel="1.0" decel="5.0" sigma="0.0" length="13" maxSpeed="6.9727882510501225" /><vType id="vType_car_6.186282514517781" accel="1.0" decel="5.0" sigma="0.0" length="4.5" maxSpeed="1.7184118095882723" /><vType id="vType_car_9.371028644368643" accel="1.0" decel="5.0" sigma="0.0" length="4.5" maxSpeed="2.603063512324623" /><vType id="vType_car_3.9080026014349456" accel="1.0" decel="5.0" sigma="0.0" length="4.5" maxSpeed="1.0855562781763737" /><vType id="vType_car_2.195706068330172" accel="1.0" decel="5.0" sigma="0.0" length="4.5" maxSpeed="0.6099183523139367" /><vType id="vType_car_18.88798217299954" accel="1.0" decel="5.0" sigma="0.0" length="4.5" maxSpeed="5.246661714722094" /><vType id="vType_car_10.09971178272355" accel="1.0" decel="5.0" sigma="0.0" length="4.5" maxSpeed="2.805475495200986" /><vType id="vType_car_17.59490973313515" accel="1.0" decel="5.0" sigma="0.0" l