<?xml version="1.0" encoding="utf-8"?>
<configuration>
	<input>
		<net-file value="updated_one.net.xml" />
		<route-files value="route.rou.xml" />
	</input>
	<time>
		<!-- <step-length value="2" /> -->
		<begin value="0" />
		<end value="1000" />
	</time>
</configuration>
