<?xml version='1.0' encoding='utf-8'?>
<routes><vType id="vType_car_50.44332912026705" accel="1.0" decel="5.0" sigma="0.0" length="4.5" maxSpeed="14.012035866740847" /><vType id="vType_car_11.422662243554187" accel="1.0" decel="5.0" sigma="0.0" length="4.5" maxSpeed="3.1729617343206074" /><vType id="vType_car_41.52162079052216" accel="1.0" decel="5.0" sigma="0.0" length="4.5" maxSpeed="11.533783552922822" /><vType id="vType_car_54.95387896174006" accel="1.0" decel="5.0" sigma="0.0" length="4.5" maxSpeed="15.264966378261127" /><vType id="vType_car_11.727354284901901" accel="1.0" decel="5.0" sigma="0.0" length="4.5" maxSpeed="3.2575984124727504" /><vType id="vType_car_10.308287278086341" accel="1.0" decel="5.0" sigma="0.0" length="4.5" maxSpeed="2.8634131328017616" /><vType id="vType_car_7.8667768932621085" accel="1.0" decel="5.0" sigma="0.0" length="4.5" maxSpeed="2.185215803683919" /><vType id="vType_car_7.9722564825127" accel="1.0" decel="5.0" sigma="0.0" length="4.5" maxSpeed="2.214515689586861" /><vType id="vType_car_6.263671809283591" accel="1.0" decel="5.0" sigma="0.0" length="4.5" maxSpeed="1.7399088359121084" /><vType id="vType_car_8.889658011002687" accel="1.0" decel="5.0" sigma="0.0" length="4.5" maxSpeed="2.4693494475007465" /><vType id="vType_car_9.494884703273284" accel="1.0" decel="5.0" sigma="0.0" length="4.5" maxSpeed="2.637467973131468" /><vType id="vType_car_4.000652656397596" accel="1.0" decel="5.0" sigma="0.0" length="4.5" maxSpeed="1.1112924045548878" /><vType id="vType_car_5.514874396457801" accel="1.0" decel="5.0" sigma="0.0" length="4.5" maxSpeed="1.5319095545716113" /><vType id="vType_car_13.458518268286946" accel="1.0" decel="5.0" sigma="0.0" length="4.5" maxSpeed="3.7384772967463737" /><vType id="vType_car_3.053079384329504" accel="1.0" decel="5.0" sigma="0.0" length="4.5" maxSpeed="0.8480776067581955" /><vType id="vType_car_32.562920959458175" accel="1.0" decel="5.0" sigma="0.0" length="4.5" maxSpeed="9.045255822071715" /><vType id="vType_car_5.660231209813585" accel="1.0" decel="5.0" sigma="0.0" length="4.5" maxSpeed="1.57228644717044" /><vType id="vType_car_41.01700352461605" accel="1.0" decel="5.0" sigma="0.0" length="4.5" maxSpeed="11.393612090171125" /><vType id="vType_car_3.2837386737074015" accel="1.0" decel="5.0" sigma="0.0" length="4.5" maxSpeed="0.9121496315853893" /><vType id="vType_car_39.14631904076582" accel="1.0" decel="5.0" sigma="0.0" length="4.5" maxSpeed="10.873977511323838" /><vType id="vType_car_40.7033360748915" accel="1.0" decel="5.0" sigma="0.0" length="4.5" maxSpeed="11.306482243025417" /><vType id="vType_car_8.830337298034504" accel="1.0" decel="5.0" sigma="0.0" length="4.5" maxSpeed="2.452871471676251" /><vType id="vType_car_36.175765145406075" accel="1.0" decel="5.0" sigma="0.0" length="4.5" maxSpeed="10.048823651501687" /><vType id="vType_car_47.58756771728298" accel="1.0" decel="5.0" sigma="0.0" length="4.5" maxSpeed="13.218768810356384" /><vType id="vType_truck_19.569881625475425" accel="1.0" decel="5.0" sigma="0.0" length="8" maxSpeed="5.436078229298729" /><vType id="vType_car_4.158179498785207" accel="1.0" decel="5.0" sigma="0.0" length="4.5" maxSpeed="1.1550498607736688" /><vType id="vType_car_2.766589646096017" accel="1.0" decel="5.0" sigma="0.0" length="4.5" maxSpeed="0.7684971239155602" /><vType id="vType_car_43.078168031904355" accel="1.0" decel="5.0" sigma="0.0" length="4.5" maxSpeed="11.966157786640098" /><vType id="vType_car_47.53639154804012" accel="1.0" decel="5.0" sigma="0.0" length="4.5" maxSpeed="13.204553207788923" /><vType id="vType_car_37.83004543789416" accel="1.0" decel="5.0" sigma="0.0" length="4.5" maxSpeed="10.508345954970599" /><vType id="vType_car_36.398721534669995" accel="1.0" decel="5.0" sigma="0.0" length="4.5" maxSpeed="10.110755981852776" /><vType id="vType_car_38.10409804849318" accel="1.0" decel="5.0" sigma="0.0" length="4.5" maxSpeed="10.584471680136994" /><vType id="vType_car_3.5630670883542024" accel="1.0" decel="5.0" sigma="0.0" length="4.5" maxSpeed="0.9897408578761673" /><vType id="vType_car_46.22511661622315" accel="1.0" decel="5.0" sigma="0.0" length="4.5" maxSpeed="12.840310171173096" /><vType id="vType_car_2.860442609921165" accel="1.0" decel="5.0" sigma="0.0" length="4.5" maxSpeed="0.7945673916447681" /><vType id="vType_car_45.941468865528655" accel="1.0" decel="5.0" sigma="0.0" length="4.5" maxSpeed="12.761519129313514" /><vType id="vType_car_9.227860572723971" accel="1.0" decel="5.0" sigma="0.0" length="4.5" maxSpeed="2.563294603534436" /><vType id="vType_car_11.695471875810293" accel="1.0" decel="5.0" sigma="0.0" length="4.5" maxSpeed="3.2487421877250813" /><vType id="vType_car_16.502789565677674" accel="1.0" decel="5.0" sigma="0.0" length="4.5" maxSpeed="4.584108212688243" /><vType id="vType_car_56.132832251486576" accel="1.0" decel="5.0" sigma="0.0" length="4.5" maxSpeed="15.592453403190715" /><vType id="vType_car_48.00469925249562" accel="1.0" decel="5.0" sigma="0.0" length="4.5" maxSpeed="13.334638681248784" /><vType id="vType_car_9.35950718036272" accel="1.0" decel="5.0" sigma="0.0" length="4.5" maxSpeed="2.599863105656311" /><vType id="vType_car_2.9826297149731453" accel="1.0" decel="5.0" sigma="0.0" length="4.5" maxSpeed="0.828508254159207" /><vType id="vType_car_3.3645498973097383" accel="1.0" decel="5.0" sigma="0.0" length="4.5" maxSpeed="0.9345971936971496" /><vType id="vType_car_6.186282514517781" accel="1.0" decel="5.0" sigma="0.0" length="4.5" maxSpeed="1.7184118095882723" /><vType id="vType_car_42.01469386904999" accel="1.0" decel="5.0" sigma="0.0" length="4.5" maxSpeed="11.670748296958331" /><vType id="vType_car_6.816808595141266" accel="1.0" decel="5.0" sigma="0.0" length="4.5" maxSpeed="1.893557943094796" /><vType id="vType_car_3.418681079267678" accel="1.0" decel="5.0" sigma="0.0" length="4.5" maxSpeed="0.9496336331299106" /><vType id="vType_car_2.7604179740516313" accel="1.0" decel="5.0" sigma="0.0" length="4.5" maxSpeed="0.7667827705698975" /><vType id="vType_car_37.05085624591724" accel="1.0" decel="5.0" sigma="0.0" length="4.5" maxSpeed="10.291904512754789" /><vType id="vType_car_8.967568192229061" accel="1.0" decel="5.0" sigma="0.0" length="4.5" maxSpeed="2.4909911645080727" /><vType id="vType_car_5.3912694413684035" accel="1.0" decel="5.0" sigma="0.0" length="4.5" maxSpeed="1.4975748448245565" /><vType id="vType_car_13.659873347408421" accel="1.0" decel="5.0" sigma="0.0" length="4.5" maxSpeed="3.7944092631690056" /><vType id="vType_car_7.760491857889279" accel="1.0" decel="5.0" sigma="0.0" length="4.5" maxSpeed="2.1556921827470217" /><vType id="vType_car_15.4624892619001" accel="1.0" decel="5.0" sigma="0.0" length="4.5" maxSpeed="4.2951359060833605" /><vType id="vType_car_9.265873972839785" accel="1.0" decel="5.0" sigma="0.0" length="4.5" maxSpeed="2.5738538813443848" /><vType id="vType_car_14.787660348667798" accel="1.0" decel="5.0" sigma="0.0" length="4.5" maxSpeed="4.107683430185499" /><vType id="vType_car_4.149884469144025" accel="1.0" decel="5.0" sigma="0.0" length="4.5" maxSpeed="1.1527456858733403" /><vType id="vType_car_6.370835236631489" accel="1.0" decel="5.0" sigma="0.0" length="4.5" maxSpeed="1.769676454619858" /><vType id="vType_car_6.5773184751780756" accel="1.0" decel="5.0" sigma="0.0" length="4.5" maxSpeed="1.8270329097716875" /><vType id="vType_car_10.84631279972918" accel="1.0" decel="5.0" sigma="0.0" length="4.5" maxSpeed="3.012864666591439" /><vType id="vType_car_48.86705571934823" accel="1.0" decel="5.0" sigma="0.0" length="4.5" maxSpeed="13.574182144263396" /><vType id="vType_car_3.9063378249769363" accel="1.0" decel="5.0" sigma="0.0" length="4.5" maxSpeed="1.0850938402713712" /><vType id="vType_car_9.792492134907185" accel="1.0" decel="5.0" sigma="0.0" length="4.5" maxSpeed="2.720136704140885" /><vType id="vType_car_21.09075296947438" accel="1.0" decel="5.0" sigma="0.0" length="4.5" maxSpeed="5.858542491520661" /><vType id="vType_car_3.223154828231588" accel="1.0" decel="5.0" sigma="0.0" length="4.5" maxSpeed="0.8953207856198855" /><vType id="vType_car_19.880704958039694" accel="1.0" decel="5.0" sigma="0.0" length="4.5" maxSpeed="5.522418043899915" /><vType id="vType_car_4.419339534741923" accel="1.0" decel="5.0" sigma="0.0" length="4.5" maxSpeed="1.2275943152060895" /><vType id="vType_car_3.111469348911253" accel="1.0" decel="5.0" sigma="0.0" length="4.5" maxSpeed="0.8642970413642369" /><vType id="vType_car_25.3387575411244" accel="1.0" decel="5.0" sigma="0.0" length="4.5" maxSpeed="7.038543761423445" /><vType id="vType_car_17.313054978971525" accel="1.0" decel="5.0" sigma="0.0" length="4.5" maxSpeed="4.809181938603201" /><vType id="vType_car_4.9765124121698525" accel="1.0" decel="5.0" sigma="0.0" length="4.5" maxSpeed="1.38236455893607" /><vType id="vType_car_1.2295953982648964" accel="1.0" decel="5.0" sigma="0.0" length="4.5" maxSpeed="0.34155427729580456" /><vType id="vType_car_0.9221965486986724" accel="1.0" decel="5.0" sigma="0.0" length="4.5" maxSpeed="0.25616570797185345" /><vType id="vType_car_20.404109083580114" accel="1.0" decel="5.0" sigma="0.0" length="4.5" maxSpeed="5.667808078772254" /><vType id="vType_car_53.138801189523114" accel="1.0" decel="5.0" sigma="0.0" length="4.5" maxSpeed="14.760778108200865" /><vType id="vType_car_48.4153188066803" accel="1.0" decel="5.0" sigma="0.0" length="4.5" maxSpeed="13.448699668522304" /><vType id="vType_car_55.443770723695906" accel="1.0" decel="5.0" sigma="0.0" length="4.5" maxSpeed="15.401047423248862" /><vType id="vType_car_9.26149780597558" accel="1.0" decel="5.0" sigma="0.0" length="4.5" maxSpeed="2.572638279437661" /><vType id="vType_car_8.935975910723055" accel="1.0" decel="5.0" sigma="0.0" length="4.5" maxSpeed="2.482215530756404" /><vType id="vType_car_45.98305317705773" accel="1.0" decel="5.0" sigma="0.0" length="4.5" maxSpeed="12.773070326960479" /><vType id="vType_car_24.86751784703821" accel="1.0" decel="5.0" sigma="0.0" length="4.5" maxSpeed="6.907643846399503" /><vType id="vType_car_20.67217102473377" accel="1.0" decel="5.0" sigma="0.0" length="4.5" maxSpeed="5.7422697290927145" /><vType id="vType_car_50.38021238183779" accel="1.0" decel="5.0" sigma="0.0" length="4.5" maxSpeed="13.994503439399384" /><vType id="vType_car_10.379267638271045" accel="1.0" decel="5.0" sigma="0.0" length="4.5" maxSpeed="2.883129899519735" /><vType id="vType_car_12.90918592481306" accel="1.0" decel="5.0" sigma="0.0" length="4.5" maxSpeed="3.585884979114739" /><vType id="vType_car_3.90951793396662" accel="1.0" decel="5.0" sigma="0.0" length="4.5" maxSpeed="1.0859772038796167" /><vType id="vType_car_32.56840543204278" accel="1.0" decel="5.0" sigma="0.0" length="4.5" maxSpeed="9.04677928667855" /><vType id="vType_car_10.370093992453947" accel="1.0" decel="5.0" sigma="0.0" length="4.5" maxSpeed="2.8805816645705407" /><vType id="vType_car_25.128833573075788" accel="1.0" decel="5.0" sigma="0.0" length="4.5" maxSpeed="6.980231548076608" /><vType id="vType_car_21.294959528989608" accel="1.0" decel="5.0" sigma="0.0" length="4.5" maxSpeed="5.915266535830447" /><vType id="vType_car_67.15878050301248" accel="1.0" decel="5.0" sigma="0.0" length="4.5" maxSpeed="18.655216806392357" /><vType id="vType_car_43.46582145094476" accel="1.0" decel="5.0" sigma="0.0" length="4.5" maxSpeed="12.073839291929099" /><vType id="vType_car_24.187654126394058" accel="1.0" decel="5.0" sigma="0.0" length="4.5" maxSpeed="6.718792812887238" /><vType id="vType_car_12.107215459498512" accel="1.0" decel="5.0" sigma="0.0" length="4.5" maxSpeed="3.363115405416253" /><vType id="vType_car_16.13185113916296" accel="1.0" decel="5.0" sigma="0.0" length="4.5" maxSpeed="4.4810697608786" /><vType id="vType_car_17.94282440246604" accel="1.0" decel="5.0" sigma="0.0" length="4.5" maxSpeed="4.9841178895739" /><vType id="vType_car_2.222437024589127" accel="1.0" decel="5.0" sigma="0.0" length="4.5" maxSpeed="0.6173436179414241" /><vType id="vType_car_10.602258145664862" accel="1.0" decel="5.0" sigma="0.0" length="4.5" maxSpeed="2.9450717071291286" /><vType id="vType_car_8.763415262272291" accel="1.0" decel="5.0" sigma="0.0" length="4.5" maxSpeed="2.4342820172978588" /><vType id="vType_car_21.086134239707572" accel="1.0" decel="5.0" sigma="0.0" length="4.5" maxSpeed="5.8572595110298815" /><vType id="vType_car_53.37640422721679" accel="1.0" decel="5.0" sigma="0.0" length="4.5" maxSpeed="14.826778952004663" /><vType id="vType_car_27.083172668880497" accel="1.0" decel="5.0" sigma="0.0" length="4.5" maxSpeed="7.523103519133471" /><vType id="vType_car_2.2478540874530135" accel="1.0" decel="5.0" sigma="0.0" length="4.5" maxSpeed="0.6244039131813927" /><vType id="vType_car_122.43879390469161" accel="1.0" decel="5.0" sigma="0.0" length="4.5" maxSpeed="34.010776084636554" /><vType id="vType_car_23.667699664961685" accel="1.0" decel="5.0" sigma="0.0" length="4.5" maxSpeed="6.574361018044912" /><vType id="vType_car_25.345887481422796" accel="1.0" decel="5.0" sigma="0.0" length="4.5" maxSpeed="7.040524300395221" /><vType id="vType_car_18.018302469921842" accel="1.0" decel="5.0" sigma="0.0" length="4.5" maxSpeed="5.005084019422734" /><vType id="vType_car_3.904788065050685" accel="1.0" decel="5.0" sigma="0.0" length="4.5" maxSpeed="1.084663351402968" /><vType id="vType_car_7.859954808108217" accel="1.0" decel="5.0" sigma="0.0" length="4.5" maxSpeed="2.1833207800300602" /><vType id="vType_car_30.891934696989065" accel="1.0" decel="5.0" sigma="0.0" length="4.5" maxSpeed="8.581092971385852" /><vType id="vType_car_6.395484550798532" accel="1.0" decel="5.0" sigma="0.0" length="4.5" maxSpeed="1.7765234863329256" /><vType id="vType_car_3.631901306820636" accel="1.0" decel="5.0" sigma="0.0" length="4.5" maxSpeed="1.0088614741168433" /><vType id="vType_car_2.933644770137651" accel="1.0" decel="5.0" sigma="0.0" length="4.5" maxSpeed="0.8149013250382364" /><vType id="vType_car_3.194342966276637" accel="1.0" decel="5.0" sigma="0.0" length="4.5" maxSpeed="0.8873174906323992" /><vType id="vType_car_68.2875080013081" accel="1.0" decel="5.0" sigma="0.0" length="4.5" maxSpeed="18.968752222585582" /><vType id="vType_car_11.07456980571393" accel="1.0" decel="5.0" sigma="0.0" length="4.5" maxSpeed="3.0762693904760914" /><vType id="vType_car_30.507844465652603" accel="1.0" decel="5.0" sigma="0.0" length="4.5" maxSpeed="8.474401240459056" /><vType id="vType_car_2.957582804918342" accel="1.0" decel="5.0" sigma="0.0" length="4.5" maxSpeed="0.8215507791439839" /><vType id="vType_car_7.075766225629845" accel="1.0" decel="5.0" sigma="0.0" length="4.5" maxSpeed="1.9654906182305125" /><vType id="vType_car_20.330428508405223" accel="1.0" decel="5.0" sigma="0.0" length="4.5" maxSpeed="5.647341252334784" /><vType id="vType_car_6.818211243668391" accel="1.0" decel="5.0" sigma="0.0" length="4.5" maxSpeed="1.893947567685664" /><vType id="vType_car_30.285210671676275" accel="1.0" decel="5.0" sigma="0.0" length="4.5" maxSpeed="8.412558519910077" /><vType id="vType_car_10.964603255119213" accel="1.0" decel="5.0" sigma="0.0" length="4.5" maxSpeed="3.0457231264220037" /><vType id="vType_car_7.243285293397631" accel="1.0" decel="5.0" sigma="0.0" length="4.5" maxSpeed="2.012023692610453" /><vType id="vType_car_23.554794855376485" accel="1.0" decel="5.0" sigma="0.0" length="4.5" maxSpeed="6.542998570937913" /><vType id="vType_car_53.68317766964234" accel="1.0" decel="5.0" sigma="0.0" length="4.5" maxSpeed="14.911993797122872" /><vType id="vType_car_9.821715574242525" accel="1.0" decel="5.0" sigma="0.0" length="4.5" maxSpeed="2.728254326178479" /><vType id="vType_car_27.458053652241137" accel="1.0" decel="5.0" sigma="0.0" length="4.5" maxSpeed="7.627237125622538" /><vType id="vType_car_93.53090883745205" accel="1.0" decel="5.0" sigma="0.0" length="4.5" maxSpeed="25.980808010403344" /><vType id="vType_car_4.6317250394344525" accel="1.0" decel="5.0" sigma="0.0" length="4.5" maxSpeed="1.2865902887317924" /><vType id="vType_car_5.900797345436318" accel="1.0" decel="5.0" sigma="0.0" length="4.5" maxSpeed="1.6391103737323105" /><vType id="vType_car_42.263537755592125" accel="1.0" decel="5.0" sigma="0.0" length="4.5" maxSpeed="11.73987159877559" /><vType id="vType_car_43.73235496486606" accel="1.0" decel="5.0" sigma="0.0" length="4.5" maxSpeed="12.14787637912946" /><vType id="vType_car_13.22544778412579" accel="1.0" decel="5.0" sigma="0.0" length="4.5" maxSpeed="3.673735495590497" /><vType id="vType_car_8.943055472178377" accel="1.0" decel="5.0" sigma="0.0" length="4.5" maxSpeed="2.484182075605105" /><vType id="vType_car_10.975763352042565" accel="1.0" decel="5.0" sigma="0.0" length="4.5" maxSpeed="3.0488231533451566" /><vType id="vType_car_10.480737108851198" accel="1.0" decel="5.0" sigma="0.0" length="4.5" maxSpeed="2.911315863569777" /><vType id="vType_car_6.660830634802875" accel="1.0" decel="5.0" sigma="0.0" length="4.5" maxSpeed="1.8502307318896873" /><vType id="vType_car_18.57552490088666" accel="1.0" decel="5.0" sigma="0.0" length="4.5" maxSpeed="5.159868028024072" /><vType id="vType_car_21.918182740538715" accel="1.0" decel="5.0" sigma="0.0" length="4.5" maxSpeed="6.088384094594087" /><vType id="vType_car_8.072617830072328" accel="1.0" decel="5.0" sigma="0.0" length="4.5" maxSpeed="2.242393841686758" /><vType id="vType_car_25.33961113823953" accel="1.0" decel="5.0" sigma="0.0" length="4.5" maxSpeed="7.038780871733202" /><vType id="vType_car_37.56960370797793" accel="1.0" decel="5.0" sigma="0.0" length="4.5" maxSpeed="10.43600102999387" /><vType id="vType_car_34.99558638760521" accel="1.0" decel="5.0" sigma="0.0" length="4.5" maxSpeed="9.720996218779224" /><vType id="vType_car_8.938066472822518" accel="1.0" decel="5.0" sigma="0.0" length="4.5" maxSpeed="2.4827962424506995" /><vType id="vType_car_52.52591754308449" accel="1.0" decel="5.0" sigma="0.0" length="4.5" maxSpeed="14.590532650856803" /><vType id="vType_car_6.799474481401613" accel="1.0" decel="5.0" sigma="0.0" length="4.5" maxSpeed="1.888742911500448" /><vType id="vType_car_8.291196923016855" accel="1.0" decel="5.0" sigma="0.0" length="4.5" maxSpeed="2.303110256393571" /><vType id="vType_car_9.127074844826623" accel="1.0" decel="5.0" sigma="0.0" length="4.5" maxSpeed="2.5352985680073954" /><vType id="vType_car_7.643993719054578" accel="1.0" decel="5.0" sigma="0.0" length="4.5" maxSpeed="2.1233315886262716" /><vType id="vType_car_9.453152746181546" accel="1.0" decel="5.0" sigma="0.0" length="4.5" maxSpeed="2.625875762828207" /><vType id="vType_car_21.474912888874368" accel="1.0" decel="5.0" sigma="0.0" length="4.5" maxSpeed="5.96525358024288" /><vType id="vType_car_8.668914211815343" accel="1.0" decel="5.0" sigma="0.0" length="4.5" maxSpeed="2.408031725504262" /><vType id="vType_car_6.4283245701900364" accel="1.0" decel="5.0" sigma="0.0" length="4.5" maxSpeed="1.7856457139416768" /><vType id="vType_car_7.107138900859261" accel="1.0" decel="5.0" sigma="0.0" length="4.5" maxSpeed="1.9742052502386835" /><vType id="vType_car_2.6436593526186707" accel="1.0" decel="5.0" sigma="0.0" length="4.5" maxSpeed="0.7343498201718529" /><vType id="vType_car_26.979324241830255" accel="1.0" decel="5.0" sigma="0.0" length="4.5" maxSpeed="7.494256733841738" /><vType id="vType_car_3.053079384329505" accel="1.0" decel="5.0" sigma="0.0" length="4.5" maxSpeed="0.8480776067581958" /><vType id="vType_car_5.533179292192034" accel="1.0" decel="5.0" sigma="0.0" length="4.5" maxSpeed="1.5369942478311205" /><vType id="vType_car_2.346506271250642" accel="1.0" decel="5.0" sigma="0.0" length="4.5" maxSpeed="0.6518072975696229" /><vType id="vType_car_15.569909336878538" accel="1.0" decel="5.0" sigma="0.0" length="4.5" maxSpeed="4.324974815799594" /><vType id="vType_car_49.976108746359856" accel="1.0" decel="5.0" sigma="0.0" length="4.5" maxSpeed="13.882252429544405" /><vType id="vType_car_10.834293821776814" accel="1.0" decel="5.0" sigma="0.0" length="4.5" maxSpeed="3.0095260616046704" /><vType id="vType_car_18.786722259285824" accel="1.0" decel="5.0" sigma="0.0" length="4.5" maxSpeed="5.218533960912729" /><vType id="vType_car_10.84692095191116" accel="1.0" decel="5.0" sigma="0.0" length="4.5" maxSpeed="3.0130335977531" /><vType id="vType_car_37.900686043436906" accel="1.0" decel="5.0" sigma="0.0" length="4.5" maxSpeed="10.52796834539914" /><vType id="vType_car_12.044436500744894" accel="1.0" decel="5.0" sigma="0.0" length="4.5" maxSpeed="3.34567680576247" /><vType id="vType_car_9.751874469483099" accel="1.0" decel="5.0" sigma="0.0" length="4.5" maxSpeed="2.7088540193008606" /><vType id="vType_car_2.5435781029138873" accel="1.0" decel="5.0" sigma="0.0" length="4.5" maxSpeed="0.7065494730316354" /><vType id="vType_car_25.054966467952536" accel="1.0" decel="5.0" sigma="0.0" length="4.5" maxSpeed="6.959712907764593" /><vType id="vType_car_18.546723769390137" accel="1.0" decel="5.0" sigma="0.0" length="4.5" maxSpeed="5.151867713719483" /><vType id="vType_car_37.848097513809925" accel="1.0" decel="5.0" sigma="0.0" length="4.5" maxSpeed="10.513360420502757" /><vType id="vType_car_26.76634055929346" accel="1.0" decel="5.0" sigma="0.0" length="4.5" maxSpeed="7.4350945998037385" /><vType id="vType_car_1.8242067674143094" accel="1.0" decel="5.0" sigma="0.0" length="4.5" maxSpeed="0.5067241020595303" /><vType id="vType_car_3.9125485990299684" accel="1.0" decel="5.0" sigma="0.0" length="4.5" maxSpeed="1.0868190552861023" /><vType id="vType_car_5.014899340955948" accel="1.0" decel="5.0" sigma="0.0" length="4.5" maxSpeed="1.3930275947099855" /><vType id="vType_car_22.341012701523475" accel="1.0" decel="5.0" sigma="0.0" length="4.5" maxSpeed="6.205836861534299" /><vType id="vType_car_30.358234798561263" accel="1.0" decel="5.0" sigma="0.0" length="4.5" maxSpeed="8.43284299960035" /><vType id="vType_car_9.267623213831268" accel="1.0" decel="5.0" sigma="0.0" length="4.5" maxSpeed="2.5743397816197966" /><vType id="vType_car_8.322763331643694" accel="1.0" decel="5.0" sigma="0.0" length="4.5" maxSpeed="2.3118787032343593" /><vType id="vType_car_2.4040725479976945" accel="1.0" decel="5.0" sigma="0.0" length="4.5" maxSpeed="0.6677979299993596" /><vType id="vType_car_42.828950166023795" accel="1.0" decel="5.0" sigma="0.0" length="4.5" maxSpeed="11.896930601673276" /><vType id="vType_car_8.925306166111467" accel="1.0" decel="5.0" sigma="0.0" length="4.5" maxSpeed="2.4792517128087406" /><vType id="vType_car_10.158875506029602" accel="1.0" decel="5.0" sigma="0.0" length="4.5" maxSpeed="2.8219098627860006" /><vType id="vType_car_35.81719196365577" accel="1.0" decel="5.0" sigma="0.0" length="4.5" maxSpeed="9.949219989904382" /><vType id="vType_car_14.95779332398038" accel="1.0" decel="5.0" sigma="0.0" length="4.5" maxSpeed="4.15494258999455" /><vType id="vType_car_2.8811855413894114" accel="1.0" decel="5.0" sigma="0.0" length="4.5" maxSpeed="0.8003293170526142" /><vType id="vType_car_5.605335243634476" accel="1.0" decel="5.0" sigma="0.0" length="4.5" maxSpeed="1.5570375676762434" /><vType id="vType_car_8.247667058184863" accel="1.0" decel="5.0" sigma="0.0" length="4.5" maxSpeed="2.291018627273573" /><vType id="vType_car_2.621293786756149" accel="1.0" decel="5.0" sigma="0.0" length="4.5" maxSpeed="0.7281371629878192" /><vType id="vType_car_2.364442752665383" accel="1.0" decel="5.0" sigma="0.0" length="4.5" maxSpeed="0.6567896535181619" /><vType id="vType_car_0.2305491371746681" accel="1.0" decel="5.0" sigma="0.0" length="4.5" maxSpeed="0.06404142699296336" /><vType id="vType_car_10.033449913926958" accel="1.0" decel="5.0" sigma="0.0" length="4.5" maxSpeed="2.787069420535266" /><vType id="vType_car_3.0744384439481647" accel="1.0" decel="5.0" sigma="0.0" length="4.5" maxSpeed="0.8540106788744901" /><vType id="vType_car_9.115754305001396" accel="1.0" decel="5.0" sigma="0.0" length="4.5" maxSpeed="2.5321539736114986" /><vType id="vType_car_2.858809300965884" accel="1.0" decel="5.0" sigma="0.0" length="4.5" maxSpeed="0.7941136947127456" /><vType id="vType_car_29.9989650981099" accel="1.0" decel="5.0" sigma="0.0" length="4.5" maxSpeed="8.333045860586083" /><vType id="vType_car_16.622709796004216" accel="1.0" decel="5.0" sigma="0.0" length="4.5" maxSpeed="4.6174193877789484" /><vType id="vType_car_2.7665896460960164" accel="1.0" decel="5.0" sigma="0.0" length="4.5" maxSpeed="0.7684971239155601" /><vType id="vType_car_3.1176736549500657" accel="1.0" decel="5.0" sigma="0.0" length="4.5" maxSpeed="0.8660204597083515" /><vType id="vType_car_31.832338179540557" accel="1.0" decel="5.0" sigma="0.0" length="4.5" maxSpeed="8.842316160983488" /><vType id="vType_car_2.612890221312904" accel="1.0" decel="5.0" sigma="0.0" length="4.5" maxSpeed="0.7258028392535845" /><vType id="vType_car_10.004178043283854" accel="1.0" decel="5.0" sigma="0.0" length="4.5" maxSpeed="2.778938345356626" /><vType id="vType_car_15.58944377416055" accel="1.0" decel="5.0" sigma="0.0" length="4.5" maxSpeed="4.33040104837793" /><vType id="vType_car_12.089755901441308" accel="1.0" decel="5.0" sigma="0.0" length="4.5" maxSpeed="3.358265528178141" /><vType id="vType_car_2.2992096463688263" accel="1.0" decel="5.0" sigma="0.0" length="4.5" maxSpeed="0.6386693462135629" /><vType id="vType_car_12.372565029035561" accel="1.0" decel="5.0" sigma="0.0" length="4.5" maxSpeed="3.4368236191765447" /><vType id="vType_car_11.953592660936224" accel="1.0" decel="5.0" sigma="0.0" length="4.5" maxSpeed="3.3204424058156174" /><vType id="vType_car_17.183374147713216" accel="1.0" decel="5.0" sigma="0.0" length="4.5" maxSpeed="4.773159485475893" /><vType id="vType_car_21.60404618114357" accel="1.0" decel="5.0" sigma="0.0" length="4.5" maxSpeed="6.001123939206547" /><vType id="vType_car_7.2879960233885095" accel="1.0" decel="5.0" sigma="0.0" length="4.5" maxSpeed="2.0244433398301416" /><vType id="vType_car_25.38821331608131" accel="1.0" decel="5.0" sigma="0.0" length="4.5" maxSpeed="7.052281476689252" /><vType id="vType_car_2.519539444286473" accel="1.0" decel="5.0" sigma="0.0" length="4.5" maxSpeed="0.6998720678573536" /><vType id="vType_car_19.538352073663564" accel="1.0" decel="5.0" sigma="0.0" length="4.5" maxSpeed="5.427320020462101" /><vType id="vType_bus_24.473135332749223" accel="1.0" decel="5.0" sigma="0.0" length="13" maxSpeed="6.798093147985895" /><vType id="vType_car_31.95685544474379" accel="1.0" decel="5.0" sigma="0.0" length="4.5" maxSpeed="8.876904290206609" /><vType id="vType_car_20.56635041126771" accel="1.0" decel="5.0" sigma="0.0" length="4.5" maxSpeed="5.71287511424103" /><vType id="vType_car_38.958028447868514" accel="1.0" decel="5.0" sigma="0.0" length="4.5" maxSpeed="10.821674568852364" /><vType id="vType_car_20.906621528310446" accel="1.0" decel="5.0" sigma="0.0" length="4.5" maxSpeed="5.807394868975123" /><vType id="vType_car_29.735246063704924" accel="1.0" decel="5.0" sigma="0.0" length="4.5" maxSpeed="8.259790573251367" /><vType id="vType_car_2.798596683603237" accel="1.0" decel="5.0" sigma="0.0" length="4.5" maxSpeed="0.7773879676675658" /><vType id="vType_car_46.69717934300004" accel="1.0" decel="5.0" sigma="0.0" length="4.5" maxSpeed="12.971438706388899" /><vType id="vType_car_17.132554909799854" accel="1.0" decel="5.0" sigma="0.0" length="4.5" maxSpeed="4.759043030499959" /><vType id="vType_car_2.8768566366776036" accel="1.0" decel="5.0" sigma="0.0" length="4.5" maxSpeed="0.7991268435215565" /><vType id="vType_car_28.645180595594187" accel="1.0" decel="5.0" sigma="0.0" length="4.5" maxSpeed="7.956994609887274" /><vType id="vType_car_3.537335138858351" accel="1.0" decel="5.0" sigma="0.0" length="4.5" maxSpeed="0.9825930941273198" /><vType id="vType_car_5.268758298748651" accel="1.0" decel="5.0" sigma="0.0" length="4.5" maxSpeed="1.4635439718746253" /><vType id="vType_car_6.601440886802964" accel="1.0" decel="5.0" sigma="0.0" length="4.5" maxSpeed="1.8337335796674898" /><vType id="vType_car_6.117040308668047" accel="1.0" decel="5.0" sigma="0.0" length="4.5" maxSpeed="1.6991778635189019" /><vType id="vType_car_24.233135919152286" accel="1.0" decel="5.0" sigma="0.0" length="4.5" maxSpeed="6.731426644208968" /><vType id="vType_car_24.340128787793805" accel="1.0" decel="5.0" sigma="0.0" length="4.5" maxSpeed="6.761146885498279" /><vType id="vType_car_32.37641132825887" accel="1.0" decel="5.0" sigma="0.0" length="4.5" maxSpeed="8.993447591183019" /><vType id="vType_car_7.633856573927467" accel="1.0" decel="5.0" sigma="0.0" length="4.5" maxSpeed="2.120515714979852" /><vType id="vType_car_24.899306814864158" accel="1.0" decel="5.0" sigma="0.0" length="4.5" maxSpeed="6.916474115240043" /><vType id="vType_truck_51.600706124369545" accel="1.0" decel="5.0" sigma="0.0" length="8" maxSpeed="14.33352947899154" /><vType id="vType_car_15.61795046033446" accel="1.0" decel="5.0" sigma="0.0" length="4.5" maxSpeed="4.338319572315128" /><vType id="vType_car_4.990944881585343" accel="1.0" decel="5.0" sigma="0.0" length="4.5" maxSpeed="1.3863735782181508" /><vType id="vType_car_2.5719745415212647" accel="1.0" decel="5.0" sigma="0.0" length="4.5" maxSpeed="0.7144373726447958" /><vType id="vType_car_9.318585779902232" accel="1.0" decel="5.0" sigma="0.0" length="4.5" maxSpeed="2.5884960499728424" /><vType id="vType_car_8.125504683112169" accel="1.0" decel="5.0" sigma="0.0" length="4.5" maxSpeed="2.257084634197825" /><vType id="vType_car_3.31990757531522" accel="1.0" decel="5.0" sigma="0.0" length="4.5" maxSpeed="0.9221965486986722" /><vType id="vType_truck_3.9125485990299684" accel="1.0" decel="5.0" sigma="0.0" length="8" maxSpeed="1.0868190552861023" /><vType id="vType_car_4.082915293714982" accel="1.0" decel="5.0" sigma="0.0" length="4.5" maxSpeed="1.1341431371430506" /><vType id="vType_car_15.749474251779331" accel="1.0" decel="5.0" sigma="0.0" length="4.5" maxSpeed="4.374853958827591" /><vType id="vType_car_12.184002902146757" accel="1.0" decel="5.0" sigma="0.0" length="4.5" maxSpeed="3.3844452505963214" /><vType id="vType_car_20.99509251290656" accel="1.0" decel="5.0" sigma="0.0" length="4.5" maxSpeed="5.831970142474044" /><vType id="vType_car_2.5183059599079125" accel="1.0" decel="5.0" sigma="0.0" length="